data_image0
_cell_length_a       9.3927
_cell_length_b       8.72335
_cell_length_c       27.0937
_cell_angle_alpha    90
_cell_angle_beta     90
_cell_angle_gamma    90

_symmetry_space_group_name_H-M    "P 1"
_symmetry_int_tables_number       1

loop_
  _symmetry_equiv_pos_as_xyz
  'x, y, z'

loop_
  _atom_site_label
  _atom_site_occupancy
  _atom_site_fract_x
  _atom_site_fract_y
  _atom_site_fract_z
  _atom_site_thermal_displace_type
  _atom_site_B_iso_or_equiv
  _atom_site_type_symbol
  O1       1.0000 0.19637  0.32474  0.27682  Biso   1.000  O
  O2       1.0000 0.19637  0.67526  0.27682  Biso   1.000  O
  O3       1.0000 0.44636  0.17526  0.28985  Biso   1.000  O
  O4       1.0000 0.44636  0.82474  0.28985  Biso   1.000  O
  O5       1.0000 0.43034  0.50000  0.29540  Biso   1.000  O
  O6       1.0000 0.24999  0.50000  0.35792  Biso   1.000  O
  O7       1.0000 0.23397  0.17526  0.36348  Biso   1.000  O
  O8       1.0000 0.23397  0.82474  0.36348  Biso   1.000  O
  O9       1.0000 0.48397  0.32474  0.37652  Biso   1.000  O
  O10      1.0000 0.48397  0.67526  0.37652  Biso   1.000  O
  O11      1.0000 0.50000  0.00000  0.38207  Biso   1.000  O
  O12      1.0000 0.18034  0.00000  0.44458  Biso   1.000  O
  O13      1.0000 0.19637  0.32474  0.45015  Biso   1.000  O
  O14      1.0000 0.19637  0.67526  0.45015  Biso   1.000  O
  O15      1.0000 0.44636  0.17526  0.46318  Biso   1.000  O
  O16      1.0000 0.44636  0.82474  0.46318  Biso   1.000  O
  O17      1.0000 0.43034  0.50000  0.46873  Biso   1.000  O
  O18      1.0000 0.24999  0.50000  0.53127  Biso   1.000  O
  O19      1.0000 0.23397  0.17526  0.53682  Biso   1.000  O
  O20      1.0000 0.23397  0.82474  0.53682  Biso   1.000  O
  O21      1.0000 0.48343  0.32629  0.55034  Biso   1.000  O
  O22      1.0000 0.48216  0.67424  0.55019  Biso   1.000  O
  O23      1.0000 0.49703  0.00003  0.55498  Biso   1.000  O
  O24      1.0000 0.17936  0.00002  0.61866  Biso   1.000  O
  O25      1.0000 0.19108  0.32696  0.62370  Biso   1.000  O
  O26      1.0000 0.20605  0.67511  0.62103  Biso   1.000  O
  O27      1.0000 0.44299  0.17887  0.63721  Biso   1.000  O
  O28      1.0000 0.44982  0.82090  0.63852  Biso   1.000  O
  O29      1.0000 0.42412  0.50149  0.64411  Biso   1.000  O
  O30      1.0000 0.25097  0.50237  0.70759  Biso   1.000  O
  O31      1.0000 0.22889  0.20413  0.71440  Biso   1.000  O
  O32      1.0000 0.21968  0.79852  0.70652  Biso   1.000  O
  O33      1.0000 0.49106  0.32778  0.72174  Biso   1.000  O
  O34      1.0000 0.48648  0.68548  0.72397  Biso   1.000  O
  O35      1.0000 0.69637  0.32474  0.27682  Biso   1.000  O
  O36      1.0000 0.69637  0.67526  0.27682  Biso   1.000  O
  O37      1.0000 0.94636  0.17526  0.28985  Biso   1.000  O
  O38      1.0000 0.94636  0.82474  0.28985  Biso   1.000  O
  O39      1.0000 0.93034  0.50000  0.29540  Biso   1.000  O
  O40      1.0000 0.74999  0.50000  0.35792  Biso   1.000  O
  O41      1.0000 0.73397  0.17526  0.36348  Biso   1.000  O
  O42      1.0000 0.73397  0.82474  0.36348  Biso   1.000  O
  O43      1.0000 0.98397  0.32474  0.37652  Biso   1.000  O
  O44      1.0000 0.98397  0.67526  0.37652  Biso   1.000  O
  O45      1.0000 0.00000  0.00000  0.38207  Biso   1.000  O
  O46      1.0000 0.68034  0.00000  0.44458  Biso   1.000  O
  O47      1.0000 0.69637  0.32474  0.45015  Biso   1.000  O
  O48      1.0000 0.69637  0.67526  0.45015  Biso   1.000  O
  O49      1.0000 0.94636  0.17526  0.46318  Biso   1.000  O
  O50      1.0000 0.94636  0.82474  0.46318  Biso   1.000  O
  O51      1.0000 0.93034  0.50000  0.46873  Biso   1.000  O
  O52      1.0000 0.74999  0.50000  0.53127  Biso   1.000  O
  O53      1.0000 0.73397  0.17526  0.53682  Biso   1.000  O
  O54      1.0000 0.73397  0.82474  0.53682  Biso   1.000  O
  O55      1.0000 0.98488  0.32447  0.54980  Biso   1.000  O
  O56      1.0000 0.98236  0.67408  0.55113  Biso   1.000  O
  O57      1.0000 0.00001  0.99511  0.55683  Biso   1.000  O
  O58      1.0000 0.67795  0.99837  0.61888  Biso   1.000  O
  O59      1.0000 0.69570  0.32448  0.62611  Biso   1.000  O
  O60      1.0000 0.69609  0.66876  0.62254  Biso   1.000  O
  O61      1.0000 0.94053  0.17836  0.63464  Biso   1.000  O
  O62      1.0000 0.95541  0.82163  0.64038  Biso   1.000  O
  O63      1.0000 0.94338  0.51472  0.64509  Biso   1.000  O
  O64      1.0000 0.75468  0.51384  0.70324  Biso   1.000  O
  O65      1.0000 0.91478  0.27638  0.72503  Biso   1.000  O
  O66      1.0000 0.77730  0.80348  0.72620  Biso   1.000  O
  Ir1      1.0000 0.34016  0.32466  0.32667  Biso   1.000  Ir
  Ir2      1.0000 0.34016  0.67535  0.32667  Biso   1.000  Ir
  Ir3      1.0000 0.09016  0.17534  0.41333  Biso   1.000  Ir
  Ir4      1.0000 0.09016  0.82466  0.41333  Biso   1.000  Ir
  Ir5      1.0000 0.34016  0.32466  0.50000  Biso   1.000  Ir
  Ir6      1.0000 0.34016  0.67535  0.50000  Biso   1.000  Ir
  Ir7      1.0000 0.08983  0.17271  0.58621  Biso   1.000  Ir
  Ir8      1.0000 0.09570  0.81928  0.58703  Biso   1.000  Ir
  Ir9      1.0000 0.33278  0.31889  0.67471  Biso   1.000  Ir
  Ir10     1.0000 0.34996  0.67661  0.67955  Biso   1.000  Ir
  Ir11     1.0000 0.84017  0.32466  0.32667  Biso   1.000  Ir
  Ir12     1.0000 0.84017  0.67535  0.32667  Biso   1.000  Ir
  Ir13     1.0000 0.59016  0.17534  0.41333  Biso   1.000  Ir
  Ir14     1.0000 0.59016  0.82466  0.41333  Biso   1.000  Ir
  Ir15     1.0000 0.84017  0.32466  0.50000  Biso   1.000  Ir
  Ir16     1.0000 0.84017  0.67535  0.50000  Biso   1.000  Ir
  Ir17     1.0000 0.58854  0.17328  0.58655  Biso   1.000  Ir
  Ir18     1.0000 0.58904  0.82459  0.58631  Biso   1.000  Ir
  Ir19     1.0000 0.84808  0.34456  0.66907  Biso   1.000  Ir
  Ir20     1.0000 0.82855  0.70222  0.67411  Biso   1.000  Ir
  H1       1.0000 0.52526  0.22334  0.72779  Biso   1.000  H
