data_image0
_cell_length_a       3.1894
_cell_length_b       6.42053
_cell_length_c       40.398
_cell_angle_alpha    90
_cell_angle_beta     90
_cell_angle_gamma    90

loop_
  _atom_site_label
  _atom_site_occupancy
  _atom_site_fract_x
  _atom_site_fract_y
  _atom_site_fract_z
  _atom_site_thermal_displace_type
  _atom_site_B_iso_or_equiv
  _atom_site_type_symbol
  Ir1      1.0000 0.50000  1.00000  0.19803  Biso   1.000  Ir
  O1       1.0000 0.50000  0.30000  0.19803  Biso   1.000  O
  Ir2      1.0000 0.00000  0.50000  0.19803  Biso   1.000  Ir
  O2       1.0000 0.50000  0.70000  0.19803  Biso   1.000  O
  O3       1.0000 0.00000  1.00000  0.22982  Biso   1.000  O
  O4       1.0000 0.00000  0.50000  0.24571  Biso   1.000  O
  Ir3      1.0000 0.00000  1.00000  0.27750  Biso   1.000  Ir
  O5       1.0000 0.50000  0.20000  0.27750  Biso   1.000  O
  Ir4      1.0000 0.50000  0.50000  0.27750  Biso   1.000  Ir
  O6       1.0000 0.50000  0.80000  0.27750  Biso   1.000  O
  O7       1.0000 0.00000  0.50000  0.30928  Biso   1.000  O
  O8       1.0000 0.00000  1.00000  0.32517  Biso   1.000  O
  Ir5      1.0000 0.50000  1.00000  0.35696  Biso   1.000  Ir
  O9       1.0000 0.50000  0.30000  0.35696  Biso   1.000  O
  Ir6      1.0000 0.00000  0.50000  0.35696  Biso   1.000  Ir
  O10      1.0000 0.50000  0.70000  0.35696  Biso   1.000  O
  O11      1.0000 0.00000  1.00000  0.38875  Biso   1.000  O
  O12      1.0000 0.00000  0.50000  0.40464  Biso   1.000  O
  Ir7      1.0000 0.00000  1.00000  0.43643  Biso   1.000  Ir
  O13      1.0000 0.50000  0.20000  0.43643  Biso   1.000  O
  Ir8      1.0000 0.50000  0.50000  0.43643  Biso   1.000  Ir
  O14      1.0000 0.50000  0.80000  0.43643  Biso   1.000  O
  O15      1.0000 0.00000  0.50000  0.46821  Biso   1.000  O
  O16      1.0000 0.00000  0.00000  0.48411  Biso   1.000  O
  Ir9      1.0000 0.50000  0.00000  0.51589  Biso   1.000  Ir
  O17      1.0000 0.50000  0.30000  0.51589  Biso   1.000  O
  Ir10     1.0000 0.00000  0.50000  0.51589  Biso   1.000  Ir
  O18      1.0000 0.50000  0.70000  0.51589  Biso   1.000  O
  O19      1.0000 0.00000  0.00000  0.54768  Biso   1.000  O
  O20      1.0000 0.00000  0.50000  0.56357  Biso   1.000  O
  Ir11     1.0000 0.00000  0.00000  0.59536  Biso   1.000  Ir
  O21      1.0000 0.50000  0.20000  0.59536  Biso   1.000  O
  Ir12     1.0000 0.50000  0.50000  0.59536  Biso   1.000  Ir
  O22      1.0000 0.50000  0.80000  0.59536  Biso   1.000  O
  O23      1.0000 0.00000  0.50000  0.62715  Biso   1.000  O
  O24      1.0000 0.00000  1.00000  0.64304  Biso   1.000  O
  Ir13     1.0000 0.50000  0.00000  0.67483  Biso   1.000  Ir
  O25      1.0000 0.50000  0.30000  0.67483  Biso   1.000  O
  Ir14     1.0000 0.00000  0.50000  0.67483  Biso   1.000  Ir
  O26      1.0000 0.50000  0.70000  0.67483  Biso   1.000  O
  O27      1.0000 0.00000  0.00000  0.70661  Biso   1.000  O
  O28      1.0000 0.00000  0.50000  0.72250  Biso   1.000  O
  Ir15     1.0000 0.00000  0.00000  0.75429  Biso   1.000  Ir
  O29      1.0000 0.50000  0.20000  0.75429  Biso   1.000  O
  Ir16     1.0000 0.50000  0.50000  0.75429  Biso   1.000  Ir
  O30      1.0000 0.50000  0.80000  0.75429  Biso   1.000  O
  O31      1.0000 0.00000  0.50000  0.78608  Biso   1.000  O
  O32      1.0000 0.00000  0.00000  0.80197  Biso   1.000  O
