data_image0
_cell_length_a       4.88305
_cell_length_b       5.1456
_cell_length_c       56.2357
_cell_angle_alpha    90
_cell_angle_beta     90
_cell_angle_gamma    61.674

_symmetry_space_group_name_H-M    "P 1"
_symmetry_int_tables_number       1

loop_
  _symmetry_equiv_pos_as_xyz
  'x, y, z'

loop_
  _atom_site_label
  _atom_site_occupancy
  _atom_site_fract_x
  _atom_site_fract_y
  _atom_site_fract_z
  _atom_site_thermal_displace_type
  _atom_site_B_iso_or_equiv
  _atom_site_type_symbol
  O1       1.0000 0.48460  0.68513  0.33919  Biso   1.000  O
  O2       1.0000 0.91671  0.12952  0.35287  Biso   1.000  O
  O3       1.0000 0.01626  0.58468  0.36391  Biso   1.000  O
  O4       1.0000 0.46154  0.03985  0.37493  Biso   1.000  O
  Ir1      1.0000 0.02329  0.26205  0.38177  Biso   1.000  Ir
  O5       1.0000 0.58505  0.48424  0.38860  Biso   1.000  O
  O6       1.0000 0.03030  0.93941  0.39964  Biso   1.000  O
  O7       1.0000 0.12988  0.39458  0.41066  Biso   1.000  O
  Ir2      1.0000 0.34593  0.61677  0.41751  Biso   1.000  Ir
  O8       1.0000 0.56198  0.83897  0.42434  Biso   1.000  O
  O9       1.0000 0.66153  0.29413  0.43537  Biso   1.000  O
  O10      1.0000 0.10682  0.74930  0.44639  Biso   1.000  O
  Ir3      1.0000 0.66856  0.97149  0.45324  Biso   1.000  Ir
  O11      1.0000 0.23032  0.19368  0.46007  Biso   1.000  O
  O12      1.0000 0.67557  0.64885  0.47111  Biso   1.000  O
  O13      1.0000 0.77515  0.10402  0.48212  Biso   1.000  O
  Ir4      1.0000 0.99120  0.32622  0.48897  Biso   1.000  Ir
  O14      1.0000 0.20726  0.54841  0.49580  Biso   1.000  O
  O15      1.0000 0.30681  0.00358  0.50684  Biso   1.000  O
  O16      1.0000 0.75209  0.45874  0.51786  Biso   1.000  O
  Ir5      1.0000 0.31384  0.68094  0.52470  Biso   1.000  Ir
  O17      1.0000 0.87560  0.90313  0.53153  Biso   1.000  O
  O18      1.0000 0.32085  0.35830  0.54257  Biso   1.000  O
  O19      1.0000 0.42043  0.81347  0.55359  Biso   1.000  O
  Ir6      1.0000 0.63648  0.03566  0.56044  Biso   1.000  Ir
  O20      1.0000 0.85254  0.25786  0.56727  Biso   1.000  O
  O21      1.0000 0.95209  0.71302  0.57830  Biso   1.000  O
  O22      1.0000 0.39737  0.16819  0.58932  Biso   1.000  O
  Ir7      1.0000 0.95912  0.39039  0.59617  Biso   1.000  Ir
  O23      1.0000 0.52088  0.61258  0.60300  Biso   1.000  O
  O24      1.0000 0.96613  0.06775  0.61404  Biso   1.000  O
  O25      1.0000 0.06571  0.52292  0.62506  Biso   1.000  O
  O26      1.0000 0.49781  0.96731  0.63873  Biso   1.000  O
  O27      1.0000 0.59736  0.42247  0.64975  Biso   1.000  O
