data_image0
_cell_length_a       5.9119
_cell_length_b       17.836
_cell_length_c       59.1227
_cell_angle_alpha    90
_cell_angle_beta     90
_cell_angle_gamma    90

_symmetry_space_group_name_H-M    "P 1"
_symmetry_int_tables_number       1

loop_
  _symmetry_equiv_pos_as_xyz
  'x, y, z'

loop_
  _atom_site_label
  _atom_site_occupancy
  _atom_site_fract_x
  _atom_site_fract_y
  _atom_site_fract_z
  _atom_site_thermal_displace_type
  _atom_site_B_iso_or_equiv
  _atom_site_type_symbol
  Ir1      1.0000 0.75000  0.91647  0.10714  Biso   1.000  Ir
  Ir2      1.0000 0.75000  0.08353  0.10714  Biso   1.000  Ir
  Ir3      1.0000 0.25000  0.58353  0.10714  Biso   1.000  Ir
  Ir4      1.0000 0.25000  0.41647  0.10714  Biso   1.000  Ir
  Ir5      1.0000 0.50000  0.16659  0.07143  Biso   1.000  Ir
  Ir6      1.0000 0.50000  0.83341  0.07143  Biso   1.000  Ir
  Ir7      1.0000 0.50000  0.33341  0.07143  Biso   1.000  Ir
  Ir8      1.0000 0.50000  0.66659  0.07143  Biso   1.000  Ir
  O1       1.0000 0.71600  0.08500  0.07400  Biso   1.000  O
  O2       1.0000 0.28400  0.91500  0.06886  Biso   1.000  O
  O3       1.0000 0.28400  0.08500  0.06886  Biso   1.000  O
  O4       1.0000 0.71600  0.91500  0.07400  Biso   1.000  O
  O5       1.0000 0.28400  0.41500  0.07400  Biso   1.000  O
  O6       1.0000 0.71600  0.58500  0.06886  Biso   1.000  O
  O7       1.0000 0.71600  0.41500  0.06886  Biso   1.000  O
  O8       1.0000 0.28400  0.58500  0.07400  Biso   1.000  O
  O9       1.0000 0.78400  0.91500  0.14029  Biso   1.000  O
  O10      1.0000 0.78400  0.08500  0.14029  Biso   1.000  O
  O11      1.0000 0.21600  0.58500  0.14029  Biso   1.000  O
  O12      1.0000 0.21600  0.41500  0.14029  Biso   1.000  O
  O13      1.0000 0.71900  0.25000  0.07143  Biso   1.000  O
  O14      1.0000 0.28100  0.75000  0.07143  Biso   1.000  O
  O15      1.0000 0.28100  0.25000  0.07143  Biso   1.000  O
  O16      1.0000 0.71900  0.75000  0.07143  Biso   1.000  O
  O17      1.0000 0.01800  0.00000  0.03871  Biso   1.000  O
  O18      1.0000 0.98200  0.00000  0.10414  Biso   1.000  O
  O19      1.0000 0.98200  0.50000  0.03871  Biso   1.000  O
  O20      1.0000 0.01800  0.50000  0.10414  Biso   1.000  O
  O21      1.0000 0.51800  0.00000  0.11014  Biso   1.000  O
  O22      1.0000 0.48200  0.50000  0.11014  Biso   1.000  O
  O23      1.0000 0.53000  0.83800  0.10600  Biso   1.000  O
  O24      1.0000 0.53000  0.16200  0.10600  Biso   1.000  O
  O25      1.0000 0.47000  0.66200  0.10600  Biso   1.000  O
  O26      1.0000 0.47000  0.33800  0.10600  Biso   1.000  O
  O27      1.0000 0.97000  0.16200  0.10829  Biso   1.000  O
  O28      1.0000 0.97000  0.83800  0.10829  Biso   1.000  O
  O29      1.0000 0.03000  0.33800  0.10829  Biso   1.000  O
  O30      1.0000 0.03000  0.66200  0.10829  Biso   1.000  O
  Ir9      1.0000 0.25000  0.08353  0.17857  Biso   1.000  Ir
  Ir10     1.0000 0.75000  0.91647  0.25000  Biso   1.000  Ir
  Ir11     1.0000 0.75000  0.08353  0.25000  Biso   1.000  Ir
  Ir12     1.0000 0.25000  0.91647  0.17857  Biso   1.000  Ir
  Ir13     1.0000 0.75000  0.41647  0.17857  Biso   1.000  Ir
  Ir14     1.0000 0.25000  0.58353  0.25000  Biso   1.000  Ir
  Ir15     1.0000 0.25000  0.41647  0.25000  Biso   1.000  Ir
  Ir16     1.0000 0.75000  0.58353  0.17857  Biso   1.000  Ir
  Ir17     1.0000 0.50000  0.16659  0.21429  Biso   1.000  Ir
  Ir18     1.0000 0.50000  0.83341  0.21429  Biso   1.000  Ir
  Ir19     1.0000 0.50000  0.33341  0.21429  Biso   1.000  Ir
  Ir20     1.0000 0.50000  0.66659  0.21429  Biso   1.000  Ir
  Ir21     1.0000 0.00000  0.16659  0.14286  Biso   1.000  Ir
  Ir22     1.0000 0.00000  0.83341  0.14286  Biso   1.000  Ir
  Ir23     1.0000 0.00000  0.33341  0.14286  Biso   1.000  Ir
  Ir24     1.0000 0.00000  0.66659  0.14286  Biso   1.000  Ir
  O31      1.0000 0.71600  0.08500  0.21686  Biso   1.000  O
  O32      1.0000 0.28400  0.91500  0.21171  Biso   1.000  O
  O33      1.0000 0.28400  0.08500  0.21171  Biso   1.000  O
  O34      1.0000 0.71600  0.91500  0.21686  Biso   1.000  O
  O35      1.0000 0.28400  0.41500  0.21686  Biso   1.000  O
  O36      1.0000 0.71600  0.58500  0.21171  Biso   1.000  O
  O37      1.0000 0.71600  0.41500  0.21171  Biso   1.000  O
  O38      1.0000 0.28400  0.58500  0.21686  Biso   1.000  O
  O39      1.0000 0.21600  0.08500  0.14543  Biso   1.000  O
  O40      1.0000 0.78400  0.91500  0.28314  Biso   1.000  O
  O41      1.0000 0.78400  0.08500  0.28314  Biso   1.000  O
  O42      1.0000 0.21600  0.91500  0.14543  Biso   1.000  O
  O43      1.0000 0.78400  0.41500  0.14543  Biso   1.000  O
  O44      1.0000 0.21600  0.58500  0.28314  Biso   1.000  O
  O45      1.0000 0.21600  0.41500  0.28314  Biso   1.000  O
  O46      1.0000 0.78400  0.58500  0.14543  Biso   1.000  O
  O47      1.0000 0.71900  0.25000  0.21429  Biso   1.000  O
  O48      1.0000 0.28100  0.75000  0.21429  Biso   1.000  O
  O49      1.0000 0.28100  0.25000  0.21429  Biso   1.000  O
  O50      1.0000 0.71900  0.75000  0.21429  Biso   1.000  O
  O51      1.0000 0.21900  0.25000  0.14286  Biso   1.000  O
  O52      1.0000 0.78100  0.75000  0.14286  Biso   1.000  O
  O53      1.0000 0.78100  0.25000  0.14286  Biso   1.000  O
  O54      1.0000 0.21900  0.75000  0.14286  Biso   1.000  O
  O55      1.0000 0.01800  0.00000  0.18157  Biso   1.000  O
  O56      1.0000 0.98200  0.00000  0.24700  Biso   1.000  O
  O57      1.0000 0.98200  0.50000  0.18157  Biso   1.000  O
  O58      1.0000 0.01800  0.50000  0.24700  Biso   1.000  O
  O59      1.0000 0.51800  0.00000  0.25300  Biso   1.000  O
  O60      1.0000 0.48200  0.00000  0.17557  Biso   1.000  O
  O61      1.0000 0.48200  0.50000  0.25300  Biso   1.000  O
  O62      1.0000 0.51800  0.50000  0.17557  Biso   1.000  O
  O63      1.0000 0.47000  0.16200  0.17971  Biso   1.000  O
  O64      1.0000 0.53000  0.83800  0.24886  Biso   1.000  O
  O65      1.0000 0.53000  0.16200  0.24886  Biso   1.000  O
  O66      1.0000 0.47000  0.83800  0.17971  Biso   1.000  O
  O67      1.0000 0.53000  0.33800  0.17971  Biso   1.000  O
  O68      1.0000 0.47000  0.66200  0.24886  Biso   1.000  O
  O69      1.0000 0.47000  0.33800  0.24886  Biso   1.000  O
  O70      1.0000 0.53000  0.66200  0.17971  Biso   1.000  O
  O71      1.0000 0.97000  0.16200  0.25114  Biso   1.000  O
  O72      1.0000 0.03000  0.83800  0.17743  Biso   1.000  O
  O73      1.0000 0.03000  0.16200  0.17743  Biso   1.000  O
  O74      1.0000 0.97000  0.83800  0.25114  Biso   1.000  O
  O75      1.0000 0.03000  0.33800  0.25114  Biso   1.000  O
  O76      1.0000 0.97000  0.66200  0.17743  Biso   1.000  O
  O77      1.0000 0.97000  0.33800  0.17743  Biso   1.000  O
  O78      1.0000 0.03000  0.66200  0.25114  Biso   1.000  O
  Ir25     1.0000 0.25000  0.08353  0.32143  Biso   1.000  Ir
  Ir26     1.0000 0.75000  0.91647  0.39286  Biso   1.000  Ir
  Ir27     1.0000 0.75000  0.08353  0.39286  Biso   1.000  Ir
  Ir28     1.0000 0.25000  0.91647  0.32143  Biso   1.000  Ir
  Ir29     1.0000 0.75000  0.41647  0.32143  Biso   1.000  Ir
  Ir30     1.0000 0.25000  0.58353  0.39286  Biso   1.000  Ir
  Ir31     1.0000 0.25000  0.41647  0.39286  Biso   1.000  Ir
  Ir32     1.0000 0.75000  0.58353  0.32143  Biso   1.000  Ir
  Ir33     1.0000 0.50000  0.16659  0.35714  Biso   1.000  Ir
  Ir34     1.0000 0.50000  0.83341  0.35714  Biso   1.000  Ir
  Ir35     1.0000 0.50000  0.33341  0.35714  Biso   1.000  Ir
  Ir36     1.0000 0.50000  0.66659  0.35714  Biso   1.000  Ir
  Ir37     1.0000 0.00000  0.16659  0.28571  Biso   1.000  Ir
  Ir38     1.0000 0.00000  0.83341  0.28571  Biso   1.000  Ir
  Ir39     1.0000 0.00000  0.33341  0.28571  Biso   1.000  Ir
  Ir40     1.0000 0.00000  0.66659  0.28571  Biso   1.000  Ir
  O79      1.0000 0.71600  0.08500  0.35971  Biso   1.000  O
  O80      1.0000 0.28400  0.91500  0.35457  Biso   1.000  O
  O81      1.0000 0.28400  0.08500  0.35457  Biso   1.000  O
  O82      1.0000 0.71600  0.91500  0.35971  Biso   1.000  O
  O83      1.0000 0.28400  0.41500  0.35971  Biso   1.000  O
  O84      1.0000 0.71600  0.58500  0.35457  Biso   1.000  O
  O85      1.0000 0.71600  0.41500  0.35457  Biso   1.000  O
  O86      1.0000 0.28400  0.58500  0.35971  Biso   1.000  O
  O87      1.0000 0.21600  0.08500  0.28829  Biso   1.000  O
  O88      1.0000 0.78400  0.91500  0.42600  Biso   1.000  O
  O89      1.0000 0.78400  0.08500  0.42600  Biso   1.000  O
  O90      1.0000 0.21600  0.91500  0.28829  Biso   1.000  O
  O91      1.0000 0.78400  0.41500  0.28829  Biso   1.000  O
  O92      1.0000 0.21600  0.58500  0.42600  Biso   1.000  O
  O93      1.0000 0.21600  0.41500  0.42600  Biso   1.000  O
  O94      1.0000 0.78400  0.58500  0.28829  Biso   1.000  O
  O95      1.0000 0.71900  0.25000  0.35714  Biso   1.000  O
  O96      1.0000 0.28100  0.75000  0.35714  Biso   1.000  O
  O97      1.0000 0.28100  0.25000  0.35714  Biso   1.000  O
  O98      1.0000 0.71900  0.75000  0.35714  Biso   1.000  O
  O99      1.0000 0.21900  0.25000  0.28571  Biso   1.000  O
  O100     1.0000 0.78100  0.75000  0.28571  Biso   1.000  O
  O101     1.0000 0.78100  0.25000  0.28571  Biso   1.000  O
  O102     1.0000 0.21900  0.75000  0.28571  Biso   1.000  O
  O103     1.0000 0.01800  0.00000  0.32443  Biso   1.000  O
  O104     1.0000 0.98200  0.00000  0.38986  Biso   1.000  O
  O105     1.0000 0.98200  0.50000  0.32443  Biso   1.000  O
  O106     1.0000 0.01800  0.50000  0.38986  Biso   1.000  O
  O107     1.0000 0.51800  0.00000  0.39586  Biso   1.000  O
  O108     1.0000 0.48200  0.00000  0.31843  Biso   1.000  O
  O109     1.0000 0.48200  0.50000  0.39586  Biso   1.000  O
  O110     1.0000 0.51800  0.50000  0.31843  Biso   1.000  O
  O111     1.0000 0.47000  0.16200  0.32257  Biso   1.000  O
  O112     1.0000 0.53000  0.83800  0.39171  Biso   1.000  O
  O113     1.0000 0.53000  0.16200  0.39171  Biso   1.000  O
  O114     1.0000 0.47000  0.83800  0.32257  Biso   1.000  O
  O115     1.0000 0.53000  0.33800  0.32257  Biso   1.000  O
  O116     1.0000 0.47000  0.66200  0.39171  Biso   1.000  O
  O117     1.0000 0.47000  0.33800  0.39171  Biso   1.000  O
  O118     1.0000 0.53000  0.66200  0.32257  Biso   1.000  O
  O119     1.0000 0.97000  0.16200  0.39400  Biso   1.000  O
  O120     1.0000 0.03000  0.83800  0.32029  Biso   1.000  O
  O121     1.0000 0.03000  0.16200  0.32029  Biso   1.000  O
  O122     1.0000 0.97000  0.83800  0.39400  Biso   1.000  O
  O123     1.0000 0.03000  0.33800  0.39400  Biso   1.000  O
  O124     1.0000 0.97000  0.66200  0.32029  Biso   1.000  O
  O125     1.0000 0.97000  0.33800  0.32029  Biso   1.000  O
  O126     1.0000 0.03000  0.66200  0.39400  Biso   1.000  O
  Ir41     1.0000 0.25000  0.08353  0.46429  Biso   1.000  Ir
  Ir42     1.0000 0.75000  0.91647  0.53571  Biso   1.000  Ir
  Ir43     1.0000 0.75000  0.08353  0.53571  Biso   1.000  Ir
  Ir44     1.0000 0.25000  0.91647  0.46429  Biso   1.000  Ir
  Ir45     1.0000 0.75000  0.41647  0.46429  Biso   1.000  Ir
  Ir46     1.0000 0.25000  0.58353  0.53571  Biso   1.000  Ir
  Ir47     1.0000 0.25000  0.41647  0.53571  Biso   1.000  Ir
  Ir48     1.0000 0.75000  0.58353  0.46429  Biso   1.000  Ir
  Ir49     1.0000 0.50000  0.16659  0.50000  Biso   1.000  Ir
  Ir50     1.0000 0.50000  0.83341  0.50000  Biso   1.000  Ir
  Ir51     1.0000 0.50000  0.33341  0.50000  Biso   1.000  Ir
  Ir52     1.0000 0.50000  0.66659  0.50000  Biso   1.000  Ir
  Ir53     1.0000 0.00000  0.16659  0.42857  Biso   1.000  Ir
  Ir54     1.0000 0.00000  0.83341  0.42857  Biso   1.000  Ir
  Ir55     1.0000 0.00000  0.33341  0.42857  Biso   1.000  Ir
  Ir56     1.0000 0.00000  0.66659  0.42857  Biso   1.000  Ir
  O127     1.0000 0.71600  0.08500  0.50257  Biso   1.000  O
  O128     1.0000 0.28400  0.91500  0.49743  Biso   1.000  O
  O129     1.0000 0.28400  0.08500  0.49743  Biso   1.000  O
  O130     1.0000 0.71600  0.91500  0.50257  Biso   1.000  O
  O131     1.0000 0.28400  0.41500  0.50257  Biso   1.000  O
  O132     1.0000 0.71600  0.58500  0.49743  Biso   1.000  O
  O133     1.0000 0.71600  0.41500  0.49743  Biso   1.000  O
  O134     1.0000 0.28400  0.58500  0.50257  Biso   1.000  O
  O135     1.0000 0.21600  0.08500  0.43114  Biso   1.000  O
  O136     1.0000 0.78400  0.91500  0.56886  Biso   1.000  O
  O137     1.0000 0.78400  0.08500  0.56886  Biso   1.000  O
  O138     1.0000 0.21600  0.91500  0.43114  Biso   1.000  O
  O139     1.0000 0.78400  0.41500  0.43114  Biso   1.000  O
  O140     1.0000 0.21600  0.58500  0.56886  Biso   1.000  O
  O141     1.0000 0.21600  0.41500  0.56886  Biso   1.000  O
  O142     1.0000 0.78400  0.58500  0.43114  Biso   1.000  O
  O143     1.0000 0.71900  0.25000  0.50000  Biso   1.000  O
  O144     1.0000 0.28100  0.75000  0.50000  Biso   1.000  O
  O145     1.0000 0.28100  0.25000  0.50000  Biso   1.000  O
  O146     1.0000 0.71900  0.75000  0.50000  Biso   1.000  O
  O147     1.0000 0.21900  0.25000  0.42857  Biso   1.000  O
  O148     1.0000 0.78100  0.75000  0.42857  Biso   1.000  O
  O149     1.0000 0.78100  0.25000  0.42857  Biso   1.000  O
  O150     1.0000 0.21900  0.75000  0.42857  Biso   1.000  O
  O151     1.0000 0.01800  0.00000  0.46729  Biso   1.000  O
  O152     1.0000 0.98200  0.00000  0.53271  Biso   1.000  O
  O153     1.0000 0.98200  0.50000  0.46729  Biso   1.000  O
  O154     1.0000 0.01800  0.50000  0.53271  Biso   1.000  O
  O155     1.0000 0.51800  0.00000  0.53871  Biso   1.000  O
  O156     1.0000 0.48200  0.00000  0.46129  Biso   1.000  O
  O157     1.0000 0.48200  0.50000  0.53871  Biso   1.000  O
  O158     1.0000 0.51800  0.50000  0.46129  Biso   1.000  O
  O159     1.0000 0.47000  0.16200  0.46543  Biso   1.000  O
  O160     1.0000 0.53000  0.83800  0.53457  Biso   1.000  O
  O161     1.0000 0.53000  0.16200  0.53457  Biso   1.000  O
  O162     1.0000 0.47000  0.83800  0.46543  Biso   1.000  O
  O163     1.0000 0.53000  0.33800  0.46543  Biso   1.000  O
  O164     1.0000 0.47000  0.66200  0.53457  Biso   1.000  O
  O165     1.0000 0.47000  0.33800  0.53457  Biso   1.000  O
  O166     1.0000 0.53000  0.66200  0.46543  Biso   1.000  O
  O167     1.0000 0.97000  0.16200  0.53686  Biso   1.000  O
  O168     1.0000 0.03000  0.83800  0.46314  Biso   1.000  O
  O169     1.0000 0.03000  0.16200  0.46314  Biso   1.000  O
  O170     1.0000 0.97000  0.83800  0.53686  Biso   1.000  O
  O171     1.0000 0.03000  0.33800  0.53686  Biso   1.000  O
  O172     1.0000 0.97000  0.66200  0.46314  Biso   1.000  O
  O173     1.0000 0.97000  0.33800  0.46314  Biso   1.000  O
  O174     1.0000 0.03000  0.66200  0.53686  Biso   1.000  O
  Ir57     1.0000 0.25000  0.08353  0.60714  Biso   1.000  Ir
  Ir58     1.0000 0.75000  0.91647  0.67857  Biso   1.000  Ir
  Ir59     1.0000 0.75000  0.08353  0.67857  Biso   1.000  Ir
  Ir60     1.0000 0.25000  0.91647  0.60714  Biso   1.000  Ir
  Ir61     1.0000 0.75000  0.41647  0.60714  Biso   1.000  Ir
  Ir62     1.0000 0.25000  0.58353  0.67857  Biso   1.000  Ir
  Ir63     1.0000 0.25000  0.41647  0.67857  Biso   1.000  Ir
  Ir64     1.0000 0.75000  0.58353  0.60714  Biso   1.000  Ir
  Ir65     1.0000 0.50000  0.16659  0.64286  Biso   1.000  Ir
  Ir66     1.0000 0.50000  0.83341  0.64286  Biso   1.000  Ir
  Ir67     1.0000 0.50000  0.33341  0.64286  Biso   1.000  Ir
  Ir68     1.0000 0.50000  0.66659  0.64286  Biso   1.000  Ir
  Ir69     1.0000 0.00000  0.16659  0.57143  Biso   1.000  Ir
  Ir70     1.0000 0.00000  0.83341  0.57143  Biso   1.000  Ir
  Ir71     1.0000 0.00000  0.33341  0.57143  Biso   1.000  Ir
  Ir72     1.0000 0.00000  0.66659  0.57143  Biso   1.000  Ir
  O175     1.0000 0.71600  0.08500  0.64543  Biso   1.000  O
  O176     1.0000 0.28400  0.91500  0.64029  Biso   1.000  O
  O177     1.0000 0.28400  0.08500  0.64029  Biso   1.000  O
  O178     1.0000 0.71600  0.91500  0.64543  Biso   1.000  O
  O179     1.0000 0.28400  0.41500  0.64543  Biso   1.000  O
  O180     1.0000 0.71600  0.58500  0.64029  Biso   1.000  O
  O181     1.0000 0.71600  0.41500  0.64029  Biso   1.000  O
  O182     1.0000 0.28400  0.58500  0.64543  Biso   1.000  O
  O183     1.0000 0.21600  0.08500  0.57400  Biso   1.000  O
  O184     1.0000 0.78400  0.91500  0.71171  Biso   1.000  O
  O185     1.0000 0.78400  0.08500  0.71171  Biso   1.000  O
  O186     1.0000 0.21600  0.91500  0.57400  Biso   1.000  O
  O187     1.0000 0.78400  0.41500  0.57400  Biso   1.000  O
  O188     1.0000 0.21600  0.58500  0.71171  Biso   1.000  O
  O189     1.0000 0.21600  0.41500  0.71171  Biso   1.000  O
  O190     1.0000 0.78400  0.58500  0.57400  Biso   1.000  O
  O191     1.0000 0.71900  0.25000  0.64286  Biso   1.000  O
  O192     1.0000 0.28100  0.75000  0.64286  Biso   1.000  O
  O193     1.0000 0.28100  0.25000  0.64286  Biso   1.000  O
  O194     1.0000 0.71900  0.75000  0.64286  Biso   1.000  O
  O195     1.0000 0.21900  0.25000  0.57143  Biso   1.000  O
  O196     1.0000 0.78100  0.75000  0.57143  Biso   1.000  O
  O197     1.0000 0.78100  0.25000  0.57143  Biso   1.000  O
  O198     1.0000 0.21900  0.75000  0.57143  Biso   1.000  O
  O199     1.0000 0.01800  0.00000  0.61014  Biso   1.000  O
  O200     1.0000 0.98200  0.00000  0.67557  Biso   1.000  O
  O201     1.0000 0.98200  0.50000  0.61014  Biso   1.000  O
  O202     1.0000 0.01800  0.50000  0.67557  Biso   1.000  O
  O203     1.0000 0.51800  0.00000  0.68157  Biso   1.000  O
  O204     1.0000 0.48200  0.00000  0.60414  Biso   1.000  O
  O205     1.0000 0.48200  0.50000  0.68157  Biso   1.000  O
  O206     1.0000 0.51800  0.50000  0.60414  Biso   1.000  O
  O207     1.0000 0.47000  0.16200  0.60829  Biso   1.000  O
  O208     1.0000 0.53000  0.83800  0.67743  Biso   1.000  O
  O209     1.0000 0.53000  0.16200  0.67743  Biso   1.000  O
  O210     1.0000 0.47000  0.83800  0.60829  Biso   1.000  O
  O211     1.0000 0.53000  0.33800  0.60829  Biso   1.000  O
  O212     1.0000 0.47000  0.66200  0.67743  Biso   1.000  O
  O213     1.0000 0.47000  0.33800  0.67743  Biso   1.000  O
  O214     1.0000 0.53000  0.66200  0.60829  Biso   1.000  O
  O215     1.0000 0.97000  0.16200  0.67971  Biso   1.000  O
  O216     1.0000 0.03000  0.83800  0.60600  Biso   1.000  O
  O217     1.0000 0.03000  0.16200  0.60600  Biso   1.000  O
  O218     1.0000 0.97000  0.83800  0.67971  Biso   1.000  O
  O219     1.0000 0.03000  0.33800  0.67971  Biso   1.000  O
  O220     1.0000 0.97000  0.66200  0.60600  Biso   1.000  O
  O221     1.0000 0.97000  0.33800  0.60600  Biso   1.000  O
  O222     1.0000 0.03000  0.66200  0.67971  Biso   1.000  O
  Ir73     1.0000 0.25000  0.08353  0.75000  Biso   1.000  Ir
  Ir74     1.0000 0.75000  0.91647  0.82143  Biso   1.000  Ir
  Ir75     1.0000 0.75000  0.08353  0.82143  Biso   1.000  Ir
  Ir76     1.0000 0.25000  0.91647  0.75000  Biso   1.000  Ir
  Ir77     1.0000 0.75000  0.41647  0.75000  Biso   1.000  Ir
  Ir78     1.0000 0.25000  0.58353  0.82143  Biso   1.000  Ir
  Ir79     1.0000 0.25000  0.41647  0.82143  Biso   1.000  Ir
  Ir80     1.0000 0.75000  0.58353  0.75000  Biso   1.000  Ir
  Ir81     1.0000 0.50000  0.16659  0.78571  Biso   1.000  Ir
  Ir82     1.0000 0.50000  0.83341  0.78571  Biso   1.000  Ir
  Ir83     1.0000 0.50000  0.33341  0.78571  Biso   1.000  Ir
  Ir84     1.0000 0.50000  0.66659  0.78571  Biso   1.000  Ir
  Ir85     1.0000 0.00000  0.16659  0.71429  Biso   1.000  Ir
  Ir86     1.0000 0.00000  0.83341  0.71429  Biso   1.000  Ir
  Ir87     1.0000 0.00000  0.33341  0.71429  Biso   1.000  Ir
  Ir88     1.0000 0.00000  0.66659  0.71429  Biso   1.000  Ir
  O223     1.0000 0.71600  0.08500  0.78829  Biso   1.000  O
  O224     1.0000 0.28400  0.91500  0.78314  Biso   1.000  O
  O225     1.0000 0.28400  0.08500  0.78314  Biso   1.000  O
  O226     1.0000 0.71600  0.91500  0.78829  Biso   1.000  O
  O227     1.0000 0.28400  0.41500  0.78829  Biso   1.000  O
  O228     1.0000 0.71600  0.58500  0.78314  Biso   1.000  O
  O229     1.0000 0.71600  0.41500  0.78314  Biso   1.000  O
  O230     1.0000 0.28400  0.58500  0.78829  Biso   1.000  O
  O231     1.0000 0.21600  0.08500  0.71686  Biso   1.000  O
  O232     1.0000 0.78400  0.91500  0.85457  Biso   1.000  O
  O233     1.0000 0.78400  0.08500  0.85457  Biso   1.000  O
  O234     1.0000 0.21600  0.91500  0.71686  Biso   1.000  O
  O235     1.0000 0.78400  0.41500  0.71686  Biso   1.000  O
  O236     1.0000 0.21600  0.58500  0.85457  Biso   1.000  O
  O237     1.0000 0.21600  0.41500  0.85457  Biso   1.000  O
  O238     1.0000 0.78400  0.58500  0.71686  Biso   1.000  O
  O239     1.0000 0.71900  0.25000  0.78571  Biso   1.000  O
  O240     1.0000 0.28100  0.75000  0.78571  Biso   1.000  O
  O241     1.0000 0.28100  0.25000  0.78571  Biso   1.000  O
  O242     1.0000 0.71900  0.75000  0.78571  Biso   1.000  O
  O243     1.0000 0.21900  0.25000  0.71429  Biso   1.000  O
  O244     1.0000 0.78100  0.75000  0.71429  Biso   1.000  O
  O245     1.0000 0.78100  0.25000  0.71429  Biso   1.000  O
  O246     1.0000 0.21900  0.75000  0.71429  Biso   1.000  O
  O247     1.0000 0.01800  0.00000  0.75300  Biso   1.000  O
  O248     1.0000 0.98200  0.00000  0.81843  Biso   1.000  O
  O249     1.0000 0.98200  0.50000  0.75300  Biso   1.000  O
  O250     1.0000 0.01800  0.50000  0.81843  Biso   1.000  O
  O251     1.0000 0.51800  0.00000  0.82443  Biso   1.000  O
  O252     1.0000 0.48200  0.00000  0.74700  Biso   1.000  O
  O253     1.0000 0.48200  0.50000  0.82443  Biso   1.000  O
  O254     1.0000 0.51800  0.50000  0.74700  Biso   1.000  O
  O255     1.0000 0.47000  0.16200  0.75114  Biso   1.000  O
  O256     1.0000 0.53000  0.83800  0.82029  Biso   1.000  O
  O257     1.0000 0.53000  0.16200  0.82029  Biso   1.000  O
  O258     1.0000 0.47000  0.83800  0.75114  Biso   1.000  O
  O259     1.0000 0.53000  0.33800  0.75114  Biso   1.000  O
  O260     1.0000 0.47000  0.66200  0.82029  Biso   1.000  O
  O261     1.0000 0.47000  0.33800  0.82029  Biso   1.000  O
  O262     1.0000 0.53000  0.66200  0.75114  Biso   1.000  O
  O263     1.0000 0.97000  0.16200  0.82257  Biso   1.000  O
  O264     1.0000 0.03000  0.83800  0.74886  Biso   1.000  O
  O265     1.0000 0.03000  0.16200  0.74886  Biso   1.000  O
  O266     1.0000 0.97000  0.83800  0.82257  Biso   1.000  O
  O267     1.0000 0.03000  0.33800  0.82257  Biso   1.000  O
  O268     1.0000 0.97000  0.66200  0.74886  Biso   1.000  O
  O269     1.0000 0.97000  0.33800  0.74886  Biso   1.000  O
  O270     1.0000 0.03000  0.66200  0.82257  Biso   1.000  O
  Ir89     1.0000 0.25000  0.08353  0.89286  Biso   1.000  Ir
  Ir90     1.0000 0.25000  0.91647  0.89286  Biso   1.000  Ir
  Ir91     1.0000 0.75000  0.41647  0.89286  Biso   1.000  Ir
  Ir92     1.0000 0.75000  0.58353  0.89286  Biso   1.000  Ir
  Ir93     1.0000 0.50000  0.16659  0.92857  Biso   1.000  Ir
  Ir94     1.0000 0.50000  0.83341  0.92857  Biso   1.000  Ir
  Ir95     1.0000 0.50000  0.33341  0.92857  Biso   1.000  Ir
  Ir96     1.0000 0.50000  0.66659  0.92857  Biso   1.000  Ir
  Ir97     1.0000 0.00000  0.16659  0.85714  Biso   1.000  Ir
  Ir98     1.0000 0.00000  0.83341  0.85714  Biso   1.000  Ir
  Ir99     1.0000 0.00000  0.33341  0.85714  Biso   1.000  Ir
  Ir100    1.0000 0.00000  0.66659  0.85714  Biso   1.000  Ir
  O271     1.0000 0.71600  0.08500  0.93114  Biso   1.000  O
  O272     1.0000 0.28400  0.91500  0.92600  Biso   1.000  O
  O273     1.0000 0.28400  0.08500  0.92600  Biso   1.000  O
  O274     1.0000 0.71600  0.91500  0.93114  Biso   1.000  O
  O275     1.0000 0.28400  0.41500  0.93114  Biso   1.000  O
  O276     1.0000 0.71600  0.58500  0.92600  Biso   1.000  O
  O277     1.0000 0.71600  0.41500  0.92600  Biso   1.000  O
  O278     1.0000 0.28400  0.58500  0.93114  Biso   1.000  O
  O279     1.0000 0.21600  0.08500  0.85971  Biso   1.000  O
  O280     1.0000 0.21600  0.91500  0.85971  Biso   1.000  O
  O281     1.0000 0.78400  0.41500  0.85971  Biso   1.000  O
  O282     1.0000 0.78400  0.58500  0.85971  Biso   1.000  O
  O283     1.0000 0.71900  0.25000  0.92857  Biso   1.000  O
  O284     1.0000 0.28100  0.75000  0.92857  Biso   1.000  O
  O285     1.0000 0.28100  0.25000  0.92857  Biso   1.000  O
  O286     1.0000 0.71900  0.75000  0.92857  Biso   1.000  O
  O287     1.0000 0.21900  0.25000  0.85714  Biso   1.000  O
  O288     1.0000 0.78100  0.75000  0.85714  Biso   1.000  O
  O289     1.0000 0.78100  0.25000  0.85714  Biso   1.000  O
  O290     1.0000 0.21900  0.75000  0.85714  Biso   1.000  O
  O291     1.0000 0.01800  0.00000  0.89586  Biso   1.000  O
  O292     1.0000 0.98200  0.50000  0.89586  Biso   1.000  O
  O293     1.0000 0.48200  0.00000  0.88986  Biso   1.000  O
  O294     1.0000 0.51800  0.50000  0.88986  Biso   1.000  O
  O295     1.0000 0.47000  0.16200  0.89400  Biso   1.000  O
  O296     1.0000 0.47000  0.83800  0.89400  Biso   1.000  O
  O297     1.0000 0.53000  0.33800  0.89400  Biso   1.000  O
  O298     1.0000 0.53000  0.66200  0.89400  Biso   1.000  O
  O299     1.0000 0.03000  0.83800  0.89171  Biso   1.000  O
  O300     1.0000 0.03000  0.16200  0.89171  Biso   1.000  O
  O301     1.0000 0.97000  0.66200  0.89171  Biso   1.000  O
  O302     1.0000 0.97000  0.33800  0.89171  Biso   1.000  O
