data_image0
_cell_length_a       6.64164
_cell_length_b       8.72335
_cell_length_c       28.2831
_cell_angle_alpha    90
_cell_angle_beta     90
_cell_angle_gamma    90

_symmetry_space_group_name_H-M    "P 1"
_symmetry_int_tables_number       1

loop_
  _symmetry_equiv_pos_as_xyz
  'x, y, z'

loop_
  _atom_site_label
  _atom_site_occupancy
  _atom_site_fract_x
  _atom_site_fract_y
  _atom_site_fract_z
  _atom_site_thermal_displace_type
  _atom_site_B_iso_or_equiv
  _atom_site_type_symbol
  O1       1.0000 0.50000  0.32474  0.26518  Biso   1.000  O
  O2       1.0000 0.50000  0.67526  0.26518  Biso   1.000  O
  O3       1.0000 0.50000  0.00000  0.27269  Biso   1.000  O
  O4       1.0000 0.21239  0.17526  0.31505  Biso   1.000  O
  O5       1.0000 0.78761  0.17526  0.31505  Biso   1.000  O
  O6       1.0000 0.18035  0.50000  0.31505  Biso   1.000  O
  O7       1.0000 0.81965  0.50000  0.31505  Biso   1.000  O
  O8       1.0000 0.21239  0.82474  0.31505  Biso   1.000  O
  O9       1.0000 0.78761  0.82474  0.31505  Biso   1.000  O
  O10      1.0000 0.50000  0.00000  0.35740  Biso   1.000  O
  O11      1.0000 0.50000  0.32474  0.36493  Biso   1.000  O
  O12      1.0000 0.50000  0.67526  0.36493  Biso   1.000  O
  O13      1.0000 0.00000  0.32474  0.38258  Biso   1.000  O
  O14      1.0000 0.00000  0.67526  0.38258  Biso   1.000  O
  O15      1.0000 0.00000  0.00000  0.39012  Biso   1.000  O
  O16      1.0000 0.28761  0.17526  0.43246  Biso   1.000  O
  O17      1.0000 0.71239  0.17526  0.43246  Biso   1.000  O
  O18      1.0000 0.28761  0.82474  0.43246  Biso   1.000  O
  O19      1.0000 0.31965  0.50000  0.43246  Biso   1.000  O
  O20      1.0000 0.68035  0.50000  0.43246  Biso   1.000  O
  O21      1.0000 0.71239  0.82474  0.43246  Biso   1.000  O
  O22      1.0000 0.00000  0.00000  0.47481  Biso   1.000  O
  O23      1.0000 0.00000  0.32474  0.48234  Biso   1.000  O
  O24      1.0000 0.00000  0.67526  0.48234  Biso   1.000  O
  O25      1.0000 0.50000  0.32474  0.49999  Biso   1.000  O
  O26      1.0000 0.50000  0.67526  0.49999  Biso   1.000  O
  O27      1.0000 0.50000  0.00000  0.50753  Biso   1.000  O
  O28      1.0000 0.21241  0.17498  0.54989  Biso   1.000  O
  O29      1.0000 0.78784  0.17423  0.54946  Biso   1.000  O
  O30      1.0000 0.18021  0.49986  0.55039  Biso   1.000  O
  O31      1.0000 0.81979  0.50012  0.55039  Biso   1.000  O
  O32      1.0000 0.78755  0.82504  0.54987  Biso   1.000  O
  O33      1.0000 0.21214  0.82580  0.54947  Biso   1.000  O
  O34      1.0000 0.49994  0.99996  0.59184  Biso   1.000  O
  O35      1.0000 0.50185  0.31816  0.60098  Biso   1.000  O
  O36      1.0000 0.49826  0.68173  0.60097  Biso   1.000  O
  O37      1.0000 0.99825  0.32108  0.61768  Biso   1.000  O
  O38      1.0000 0.00182  0.67888  0.61767  Biso   1.000  O
  O39      1.0000 0.00012  0.99998  0.62629  Biso   1.000  O
  O40      1.0000 0.28985  0.17098  0.66587  Biso   1.000  O
  O41      1.0000 0.70957  0.17053  0.66669  Biso   1.000  O
  O42      1.0000 0.31781  0.50029  0.66559  Biso   1.000  O
  O43      1.0000 0.68253  0.49952  0.66561  Biso   1.000  O
  O44      1.0000 0.29074  0.82938  0.66661  Biso   1.000  O
  O45      1.0000 0.71040  0.82893  0.66585  Biso   1.000  O
  O46      1.0000 0.00019  0.99996  0.71074  Biso   1.000  O
  O47      1.0000 0.00123  0.30231  0.71838  Biso   1.000  O
  O48      1.0000 0.99915  0.69737  0.71830  Biso   1.000  O
  O49      1.0000 0.49799  0.32205  0.73258  Biso   1.000  O
  O50      1.0000 0.50201  0.67781  0.73256  Biso   1.000  O
  Ir1      1.0000 0.50000  0.17534  0.31505  Biso   1.000  Ir
  Ir2      1.0000 0.00000  0.32465  0.31505  Biso   1.000  Ir
  Ir3      1.0000 0.00000  0.67534  0.31505  Biso   1.000  Ir
  Ir4      1.0000 0.50000  0.82466  0.31505  Biso   1.000  Ir
  Ir5      1.0000 0.00000  0.17534  0.43246  Biso   1.000  Ir
  Ir6      1.0000 0.50000  0.32465  0.43246  Biso   1.000  Ir
  Ir7      1.0000 0.50000  0.67534  0.43246  Biso   1.000  Ir
  Ir8      1.0000 0.00000  0.82466  0.43246  Biso   1.000  Ir
  Ir9      1.0000 0.50019  0.17549  0.54992  Biso   1.000  Ir
  Ir10     1.0000 0.99982  0.32438  0.54973  Biso   1.000  Ir
  Ir11     1.0000 0.00014  0.67561  0.54972  Biso   1.000  Ir
  Ir12     1.0000 0.49976  0.82449  0.54993  Biso   1.000  Ir
  Ir13     1.0000 0.99955  0.17773  0.66847  Biso   1.000  Ir
  Ir14     1.0000 0.49974  0.32509  0.67014  Biso   1.000  Ir
  Ir15     1.0000 0.50056  0.67475  0.67012  Biso   1.000  Ir
  Ir16     1.0000 0.00075  0.82220  0.66845  Biso   1.000  Ir
