data_image0
_cell_length_a       5.9119
_cell_length_b       17.836
_cell_length_c       20
_cell_angle_alpha    90
_cell_angle_beta     90
_cell_angle_gamma    90

_symmetry_space_group_name_H-M    "P 1"
_symmetry_int_tables_number       1

loop_
  _symmetry_equiv_pos_as_xyz
  'x, y, z'

loop_
  _atom_site_label
  _atom_site_occupancy
  _atom_site_fract_x
  _atom_site_fract_y
  _atom_site_fract_z
  _atom_site_thermal_displace_type
  _atom_site_B_iso_or_equiv
  _atom_site_type_symbol
  Ir1      1.0000 0.75900  0.95824  0.29497  Biso   1.000  Ir
  Ir2      1.0000 0.75900  0.12529  0.29497  Biso   1.000  Ir
  Ir3      1.0000 0.25900  0.62529  0.29497  Biso   1.000  Ir
  Ir4      1.0000 0.25900  0.45824  0.29497  Biso   1.000  Ir
  Ir5      1.0000 0.27343  0.12342  0.50561  Biso   1.000  Ir
  Ir6      1.0000 0.28694  0.95466  0.50524  Biso   1.000  Ir
  Ir7      1.0000 0.76194  0.46418  0.50445  Biso   1.000  Ir
  Ir8      1.0000 0.73359  0.63336  0.50962  Biso   1.000  Ir
  Ir9      1.0000 0.54141  0.21424  0.60931  Biso   1.000  Ir
  Ir10     1.0000 0.59609  0.89098  0.61779  Biso   1.000  Ir
  Ir11     1.0000 0.54202  0.38929  0.62870  Biso   1.000  Ir
  Ir12     1.0000 0.43596  0.69913  0.62455  Biso   1.000  Ir
  Ir13     1.0000 0.00900  0.20836  0.40055  Biso   1.000  Ir
  Ir14     1.0000 0.00900  0.87517  0.40055  Biso   1.000  Ir
  Ir15     1.0000 0.00900  0.37517  0.40055  Biso   1.000  Ir
  Ir16     1.0000 0.00900  0.70836  0.40055  Biso   1.000  Ir
  O1       1.0000 0.79300  0.95676  0.39295  Biso   1.000  O
  O2       1.0000 0.79300  0.12676  0.39295  Biso   1.000  O
  O3       1.0000 0.22500  0.62676  0.39295  Biso   1.000  O
  O4       1.0000 0.22500  0.45676  0.39295  Biso   1.000  O
  O5       1.0000 0.99100  0.04176  0.28610  Biso   1.000  O
  O6       1.0000 0.02700  0.54176  0.28610  Biso   1.000  O
  O7       1.0000 0.52700  0.04176  0.30384  Biso   1.000  O
  O8       1.0000 0.49100  0.54176  0.30384  Biso   1.000  O
  O9       1.0000 0.53900  0.87977  0.29159  Biso   1.000  O
  O10      1.0000 0.53900  0.20376  0.29159  Biso   1.000  O
  O11      1.0000 0.47900  0.70376  0.29159  Biso   1.000  O
  O12      1.0000 0.47900  0.37977  0.29159  Biso   1.000  O
  O13      1.0000 0.97900  0.20376  0.29835  Biso   1.000  O
  O14      1.0000 0.97900  0.87977  0.29835  Biso   1.000  O
  O15      1.0000 0.03900  0.37977  0.29835  Biso   1.000  O
  O16      1.0000 0.03900  0.70376  0.29835  Biso   1.000  O
  O17      1.0000 0.69233  0.16009  0.66500  Biso   1.000  O
  O18      1.0000 0.31686  0.93915  0.60452  Biso   1.000  O
  O19      1.0000 0.27181  0.15197  0.59864  Biso   1.000  O
  O20      1.0000 0.82585  0.95033  0.62675  Biso   1.000  O
  O21      1.0000 0.28781  0.43296  0.64760  Biso   1.000  O
  O22      1.0000 0.72808  0.64983  0.60417  Biso   1.000  O
  O23      1.0000 0.77344  0.45648  0.60480  Biso   1.000  O
  O24      1.0000 0.27975  0.61615  0.63512  Biso   1.000  O
  O25      1.0000 0.22500  0.12676  0.40815  Biso   1.000  O
  O26      1.0000 0.22500  0.95676  0.40815  Biso   1.000  O
  O27      1.0000 0.79300  0.45676  0.40815  Biso   1.000  O
  O28      1.0000 0.79300  0.62676  0.40815  Biso   1.000  O
  O29      1.0000 0.72481  0.29757  0.59299  Biso   1.000  O
  O30      1.0000 0.22675  0.76534  0.60604  Biso   1.000  O
  O31      1.0000 0.35627  0.28904  0.64202  Biso   1.000  O
  O32      1.0000 0.66735  0.79590  0.59422  Biso   1.000  O
  O33      1.0000 0.22800  0.29176  0.40055  Biso   1.000  O
  O34      1.0000 0.79000  0.79176  0.40055  Biso   1.000  O
  O35      1.0000 0.79000  0.29176  0.40055  Biso   1.000  O
  O36      1.0000 0.22800  0.79176  0.40055  Biso   1.000  O
  O37      1.0000 0.08367  0.03859  0.52251  Biso   1.000  O
  O38      1.0000 0.94943  0.54796  0.51769  Biso   1.000  O
  O39      1.0000 0.48152  0.04402  0.50099  Biso   1.000  O
  O40      1.0000 0.54745  0.54624  0.50285  Biso   1.000  O
  O41      1.0000 0.53717  0.19470  0.51684  Biso   1.000  O
  O42      1.0000 0.50494  0.86952  0.70038  Biso   1.000  O
  O43      1.0000 0.55529  0.90045  0.51547  Biso   1.000  O
  O44      1.0000 0.51563  0.39882  0.52986  Biso   1.000  O
  O45      1.0000 0.54262  0.71833  0.70425  Biso   1.000  O
  O46      1.0000 0.68118  0.37425  0.70672  Biso   1.000  O
  O47      1.0000 0.46655  0.68927  0.52176  Biso   1.000  O
  O48      1.0000 0.04631  0.88624  0.49814  Biso   1.000  O
  O49      1.0000 0.03003  0.19575  0.49476  Biso   1.000  O
  O50      1.0000 0.97200  0.70113  0.49723  Biso   1.000  O
  O51      1.0000 0.00439  0.39213  0.49522  Biso   1.000  O
