data_image0
_cell_length_a       9.3927
_cell_length_b       8.72335
_cell_length_c       27.0937
_cell_angle_alpha    90
_cell_angle_beta     90
_cell_angle_gamma    90

_symmetry_space_group_name_H-M    "P 1"
_symmetry_int_tables_number       1

loop_
  _symmetry_equiv_pos_as_xyz
  'x, y, z'

loop_
  _atom_site_label
  _atom_site_occupancy
  _atom_site_fract_x
  _atom_site_fract_y
  _atom_site_fract_z
  _atom_site_thermal_displace_type
  _atom_site_B_iso_or_equiv
  _atom_site_type_symbol
  O1       1.0000 0.19637  0.32474  0.27682  Biso   1.000  O
  O2       1.0000 0.19637  0.67526  0.27682  Biso   1.000  O
  O3       1.0000 0.44636  0.17526  0.28985  Biso   1.000  O
  O4       1.0000 0.44636  0.82474  0.28985  Biso   1.000  O
  O5       1.0000 0.43034  0.50000  0.29540  Biso   1.000  O
  O6       1.0000 0.24999  0.50000  0.35792  Biso   1.000  O
  O7       1.0000 0.23397  0.17526  0.36348  Biso   1.000  O
  O8       1.0000 0.23397  0.82474  0.36348  Biso   1.000  O
  O9       1.0000 0.48397  0.32474  0.37652  Biso   1.000  O
  O10      1.0000 0.48397  0.67526  0.37652  Biso   1.000  O
  O11      1.0000 0.50000  0.00000  0.38207  Biso   1.000  O
  O12      1.0000 0.18034  0.00000  0.44458  Biso   1.000  O
  O13      1.0000 0.19637  0.32474  0.45015  Biso   1.000  O
  O14      1.0000 0.19637  0.67526  0.45015  Biso   1.000  O
  O15      1.0000 0.44636  0.17526  0.46318  Biso   1.000  O
  O16      1.0000 0.44636  0.82474  0.46318  Biso   1.000  O
  O17      1.0000 0.43034  0.50000  0.46873  Biso   1.000  O
  O18      1.0000 0.24999  0.50000  0.53127  Biso   1.000  O
  O19      1.0000 0.23397  0.17526  0.53682  Biso   1.000  O
  O20      1.0000 0.23397  0.82474  0.53682  Biso   1.000  O
  O21      1.0000 0.48594  0.32557  0.54930  Biso   1.000  O
  O22      1.0000 0.48231  0.67465  0.55110  Biso   1.000  O
  O23      1.0000 0.49937  0.99692  0.55718  Biso   1.000  O
  O24      1.0000 0.18013  0.99804  0.61759  Biso   1.000  O
  O25      1.0000 0.18877  0.32403  0.62777  Biso   1.000  O
  O26      1.0000 0.20141  0.67896  0.62479  Biso   1.000  O
  O27      1.0000 0.44025  0.18032  0.63437  Biso   1.000  O
  O28      1.0000 0.45283  0.82188  0.64070  Biso   1.000  O
  O29      1.0000 0.44617  0.50180  0.64836  Biso   1.000  O
  O30      1.0000 0.24966  0.50800  0.70430  Biso   1.000  O
  O31      1.0000 0.38496  0.25203  0.72670  Biso   1.000  O
  O32      1.0000 0.21782  0.81171  0.71316  Biso   1.000  O
  O33      1.0000 0.47831  0.68112  0.72837  Biso   1.000  O
  O34      1.0000 0.69637  0.32474  0.27682  Biso   1.000  O
  O35      1.0000 0.69637  0.67526  0.27682  Biso   1.000  O
  O36      1.0000 0.94636  0.17526  0.28985  Biso   1.000  O
  O37      1.0000 0.94636  0.82474  0.28985  Biso   1.000  O
  O38      1.0000 0.93034  0.50000  0.29540  Biso   1.000  O
  O39      1.0000 0.74999  0.50000  0.35792  Biso   1.000  O
  O40      1.0000 0.73397  0.17526  0.36348  Biso   1.000  O
  O41      1.0000 0.73397  0.82474  0.36348  Biso   1.000  O
  O42      1.0000 0.98397  0.32474  0.37652  Biso   1.000  O
  O43      1.0000 0.98397  0.67526  0.37652  Biso   1.000  O
  O44      1.0000 0.00000  0.00000  0.38207  Biso   1.000  O
  O45      1.0000 0.68034  0.00000  0.44458  Biso   1.000  O
  O46      1.0000 0.69637  0.32474  0.45015  Biso   1.000  O
  O47      1.0000 0.69637  0.67526  0.45015  Biso   1.000  O
  O48      1.0000 0.94636  0.17526  0.46318  Biso   1.000  O
  O49      1.0000 0.94636  0.82474  0.46318  Biso   1.000  O
  O50      1.0000 0.93034  0.50000  0.46873  Biso   1.000  O
  O51      1.0000 0.74999  0.50000  0.53127  Biso   1.000  O
  O52      1.0000 0.73397  0.17526  0.53682  Biso   1.000  O
  O53      1.0000 0.73397  0.82474  0.53682  Biso   1.000  O
  O54      1.0000 0.98390  0.32391  0.54991  Biso   1.000  O
  O55      1.0000 0.98382  0.67466  0.55012  Biso   1.000  O
  O56      1.0000 0.99820  0.99494  0.55511  Biso   1.000  O
  O57      1.0000 0.67929  0.00001  0.61828  Biso   1.000  O
  O58      1.0000 0.69783  0.32310  0.62140  Biso   1.000  O
  O59      1.0000 0.70189  0.67499  0.62184  Biso   1.000  O
  O60      1.0000 0.94292  0.17105  0.63628  Biso   1.000  O
  O61      1.0000 0.95266  0.81798  0.63870  Biso   1.000  O
  O62      1.0000 0.91447  0.49778  0.63926  Biso   1.000  O
  O63      1.0000 0.75126  0.49686  0.70714  Biso   1.000  O
  O64      1.0000 0.72050  0.19198  0.70584  Biso   1.000  O
  O65      1.0000 0.73212  0.80698  0.70660  Biso   1.000  O
  O66      1.0000 0.98772  0.32390  0.71820  Biso   1.000  O
  O67      1.0000 0.98971  0.65872  0.72157  Biso   1.000  O
  Ir1      1.0000 0.34016  0.32466  0.32667  Biso   1.000  Ir
  Ir2      1.0000 0.34016  0.67535  0.32667  Biso   1.000  Ir
  Ir3      1.0000 0.09016  0.17534  0.41333  Biso   1.000  Ir
  Ir4      1.0000 0.09016  0.82466  0.41333  Biso   1.000  Ir
  Ir5      1.0000 0.34016  0.32466  0.50000  Biso   1.000  Ir
  Ir6      1.0000 0.34016  0.67535  0.50000  Biso   1.000  Ir
  Ir7      1.0000 0.08689  0.16980  0.58641  Biso   1.000  Ir
  Ir8      1.0000 0.09190  0.82069  0.58637  Biso   1.000  Ir
  Ir9      1.0000 0.34102  0.33817  0.67092  Biso   1.000  Ir
  Ir10     1.0000 0.33379  0.69541  0.67860  Biso   1.000  Ir
  Ir11     1.0000 0.84017  0.32466  0.32667  Biso   1.000  Ir
  Ir12     1.0000 0.84017  0.67535  0.32667  Biso   1.000  Ir
  Ir13     1.0000 0.59016  0.17534  0.41333  Biso   1.000  Ir
  Ir14     1.0000 0.59016  0.82466  0.41333  Biso   1.000  Ir
  Ir15     1.0000 0.84017  0.32466  0.50000  Biso   1.000  Ir
  Ir16     1.0000 0.84017  0.67535  0.50000  Biso   1.000  Ir
  Ir17     1.0000 0.58996  0.17483  0.58643  Biso   1.000  Ir
  Ir18     1.0000 0.59334  0.82028  0.58729  Biso   1.000  Ir
  Ir19     1.0000 0.84202  0.31837  0.67687  Biso   1.000  Ir
  Ir20     1.0000 0.85105  0.67356  0.67783  Biso   1.000  Ir
  H1       1.0000 0.55946  0.75299  0.72286  Biso   1.000  H
