data_image0
_cell_length_a       6.3788
_cell_length_b       9.08
_cell_length_c       42.332
_cell_angle_alpha    90
_cell_angle_beta     90
_cell_angle_gamma    90

_symmetry_space_group_name_H-M    "P 1"
_symmetry_int_tables_number       1

loop_
  _symmetry_equiv_pos_as_xyz
  'x, y, z'

loop_
  _atom_site_label
  _atom_site_occupancy
  _atom_site_fract_x
  _atom_site_fract_y
  _atom_site_fract_z
  _atom_site_thermal_displace_type
  _atom_site_B_iso_or_equiv
  _atom_site_type_symbol
  O1       1.0000 0.00000  0.30000  0.21043  Biso   1.000  O
  O2       1.0000 0.25000  0.05000  0.22116  Biso   1.000  O
  Ir1      1.0000 0.00000  0.15000  0.24261  Biso   1.000  Ir
  O3       1.0000 0.25000  0.25000  0.26406  Biso   1.000  O
  O4       1.0000 0.00000  0.00000  0.27478  Biso   1.000  O
  Ir2      1.0000 0.25000  0.40000  0.29623  Biso   1.000  Ir
  O5       1.0000 0.00000  0.30000  0.31768  Biso   1.000  O
  O6       1.0000 0.25000  0.05000  0.32840  Biso   1.000  O
  Ir3      1.0000 0.00000  0.15000  0.34985  Biso   1.000  Ir
  O7       1.0000 0.25000  0.25000  0.37130  Biso   1.000  O
  O8       1.0000 0.00000  0.00000  0.38203  Biso   1.000  O
  Ir4      1.0000 0.25000  0.40000  0.40348  Biso   1.000  Ir
  O9       1.0000 0.00000  0.30000  0.42493  Biso   1.000  O
  O10      1.0000 0.25000  0.05000  0.43565  Biso   1.000  O
  Ir5      1.0000 0.00000  0.15000  0.45710  Biso   1.000  Ir
  O11      1.0000 0.25000  0.25000  0.47855  Biso   1.000  O
  O12      1.0000 0.00000  0.00000  0.48928  Biso   1.000  O
  O13      1.0000 0.00000  0.80000  0.21043  Biso   1.000  O
  O14      1.0000 0.25000  0.55000  0.22116  Biso   1.000  O
  Ir6      1.0000 0.00000  0.65000  0.24261  Biso   1.000  Ir
  O15      1.0000 0.25000  0.75000  0.26406  Biso   1.000  O
  O16      1.0000 0.00000  0.50000  0.27478  Biso   1.000  O
  Ir7      1.0000 0.25000  0.90000  0.29623  Biso   1.000  Ir
  O17      1.0000 0.00000  0.80000  0.31768  Biso   1.000  O
  O18      1.0000 0.25000  0.55000  0.32840  Biso   1.000  O
  Ir8      1.0000 0.00000  0.65000  0.34985  Biso   1.000  Ir
  O19      1.0000 0.25000  0.75000  0.37130  Biso   1.000  O
  O20      1.0000 0.00000  0.50000  0.38203  Biso   1.000  O
  Ir9      1.0000 0.25000  0.90000  0.40348  Biso   1.000  Ir
  O21      1.0000 0.00000  0.80000  0.42493  Biso   1.000  O
  O22      1.0000 0.25000  0.55000  0.43565  Biso   1.000  O
  Ir10     1.0000 0.00000  0.65000  0.45710  Biso   1.000  Ir
  O23      1.0000 0.25000  0.75000  0.47855  Biso   1.000  O
  O24      1.0000 0.00000  0.50000  0.48928  Biso   1.000  O
  O25      1.0000 0.50000  0.30000  0.21043  Biso   1.000  O
  O26      1.0000 0.75000  0.05000  0.22116  Biso   1.000  O
  Ir11     1.0000 0.50000  0.15000  0.24261  Biso   1.000  Ir
  O27      1.0000 0.75000  0.25000  0.26406  Biso   1.000  O
  O28      1.0000 0.50000  0.00000  0.27478  Biso   1.000  O
  Ir12     1.0000 0.75000  0.40000  0.29623  Biso   1.000  Ir
  O29      1.0000 0.50000  0.30000  0.31768  Biso   1.000  O
  O30      1.0000 0.75000  0.05000  0.32840  Biso   1.000  O
  Ir13     1.0000 0.50000  0.15000  0.34985  Biso   1.000  Ir
  O31      1.0000 0.75000  0.25000  0.37130  Biso   1.000  O
  O32      1.0000 0.50000  0.00000  0.38203  Biso   1.000  O
  Ir14     1.0000 0.75000  0.40000  0.40348  Biso   1.000  Ir
  O33      1.0000 0.50000  0.30000  0.42493  Biso   1.000  O
  O34      1.0000 0.75000  0.05000  0.43565  Biso   1.000  O
  Ir15     1.0000 0.50000  0.15000  0.45710  Biso   1.000  Ir
  O35      1.0000 0.75000  0.25000  0.47855  Biso   1.000  O
  O36      1.0000 0.50000  0.00000  0.48928  Biso   1.000  O
  O37      1.0000 0.50000  0.80000  0.21043  Biso   1.000  O
  O38      1.0000 0.75000  0.55000  0.22116  Biso   1.000  O
  Ir16     1.0000 0.50000  0.65000  0.24261  Biso   1.000  Ir
  O39      1.0000 0.75000  0.75000  0.26406  Biso   1.000  O
  O40      1.0000 0.50000  0.50000  0.27478  Biso   1.000  O
  Ir17     1.0000 0.75000  0.90000  0.29623  Biso   1.000  Ir
  O41      1.0000 0.50000  0.80000  0.31768  Biso   1.000  O
  O42      1.0000 0.75000  0.55000  0.32840  Biso   1.000  O
  Ir18     1.0000 0.50000  0.65000  0.34985  Biso   1.000  Ir
  O43      1.0000 0.75000  0.75000  0.37130  Biso   1.000  O
  O44      1.0000 0.50000  0.50000  0.38203  Biso   1.000  O
  Ir19     1.0000 0.75000  0.90000  0.40348  Biso   1.000  Ir
  O45      1.0000 0.50000  0.80000  0.42493  Biso   1.000  O
  O46      1.0000 0.75000  0.55000  0.43565  Biso   1.000  O
  Ir20     1.0000 0.50000  0.65000  0.45710  Biso   1.000  Ir
  O47      1.0000 0.75000  0.75000  0.47855  Biso   1.000  O
  O48      1.0000 0.50000  0.50000  0.48928  Biso   1.000  O
