data_image0
_cell_length_a       4.69635
_cell_length_b       4.69635
_cell_length_c       58.0879
_cell_angle_alpha    90
_cell_angle_beta     90
_cell_angle_gamma    89.9999

_symmetry_space_group_name_H-M    "P 1"
_symmetry_int_tables_number       1

loop_
  _symmetry_equiv_pos_as_xyz
  'x, y, z'

loop_
  _atom_site_label
  _atom_site_occupancy
  _atom_site_fract_x
  _atom_site_fract_y
  _atom_site_fract_z
  _atom_site_thermal_displace_type
  _atom_site_B_iso_or_equiv
  _atom_site_type_symbol
  O1       1.0000 0.39274  0.60726  0.21281  Biso   1.000  O
  O2       1.0000 0.03204  0.96796  0.21281  Biso   1.000  O
  O3       1.0000 0.49999  0.07521  0.23913  Biso   1.000  O
  O4       1.0000 0.92478  0.50000  0.23913  Biso   1.000  O
  Ir1      1.0000 0.21239  0.78761  0.23914  Biso   1.000  Ir
  Ir2      1.0000 0.71239  0.28761  0.26157  Biso   1.000  Ir
  O5       1.0000 0.00000  0.00000  0.26158  Biso   1.000  O
  O6       1.0000 0.42478  0.57522  0.26158  Biso   1.000  O
  O7       1.0000 0.53204  0.10726  0.28790  Biso   1.000  O
  O8       1.0000 0.89273  0.46795  0.28790  Biso   1.000  O
  O9       1.0000 0.00000  0.00000  0.31422  Biso   1.000  O
  O10      1.0000 0.42478  0.57522  0.31422  Biso   1.000  O
  Ir3      1.0000 0.71239  0.28761  0.31423  Biso   1.000  Ir
  Ir4      1.0000 0.21239  0.78761  0.33665  Biso   1.000  Ir
  O11      1.0000 0.49999  0.07521  0.33667  Biso   1.000  O
  O12      1.0000 0.92478  0.50000  0.33667  Biso   1.000  O
  O13      1.0000 0.39274  0.60726  0.36298  Biso   1.000  O
  O14      1.0000 0.03204  0.96796  0.36298  Biso   1.000  O
  O15      1.0000 0.49999  0.07521  0.38930  Biso   1.000  O
  O16      1.0000 0.92478  0.50000  0.38930  Biso   1.000  O
  Ir5      1.0000 0.21239  0.78761  0.38932  Biso   1.000  Ir
  Ir6      1.0000 0.71239  0.28761  0.41174  Biso   1.000  Ir
  O17      1.0000 0.00000  0.00000  0.41175  Biso   1.000  O
  O18      1.0000 0.42478  0.57522  0.41175  Biso   1.000  O
  O19      1.0000 0.53204  0.10726  0.43807  Biso   1.000  O
  O20      1.0000 0.89273  0.46795  0.43807  Biso   1.000  O
  O21      1.0000 0.00000  0.00000  0.46439  Biso   1.000  O
  O22      1.0000 0.42478  0.57522  0.46439  Biso   1.000  O
  Ir7      1.0000 0.71239  0.28761  0.46440  Biso   1.000  Ir
  Ir8      1.0000 0.21239  0.78761  0.48683  Biso   1.000  Ir
  O23      1.0000 0.49999  0.07521  0.48684  Biso   1.000  O
  O24      1.0000 0.92478  0.50000  0.48684  Biso   1.000  O
  O25      1.0000 0.39274  0.60726  0.51316  Biso   1.000  O
  O26      1.0000 0.03204  0.96796  0.51316  Biso   1.000  O
  O27      1.0000 0.49999  0.07521  0.53948  Biso   1.000  O
  O28      1.0000 0.92478  0.50000  0.53948  Biso   1.000  O
  Ir9      1.0000 0.21239  0.78761  0.53949  Biso   1.000  Ir
  Ir10     1.0000 0.71239  0.28761  0.56192  Biso   1.000  Ir
  O29      1.0000 0.00000  0.00000  0.56193  Biso   1.000  O
  O30      1.0000 0.42478  0.57522  0.56193  Biso   1.000  O
  O31      1.0000 0.53204  0.10726  0.58825  Biso   1.000  O
  O32      1.0000 0.89273  0.46795  0.58825  Biso   1.000  O
  O33      1.0000 0.00000  0.00000  0.61457  Biso   1.000  O
  O34      1.0000 0.42478  0.57522  0.61457  Biso   1.000  O
  Ir11     1.0000 0.71239  0.28761  0.61458  Biso   1.000  Ir
  Ir12     1.0000 0.21239  0.78761  0.63700  Biso   1.000  Ir
  O35      1.0000 0.49999  0.07521  0.63702  Biso   1.000  O
  O36      1.0000 0.92478  0.50000  0.63702  Biso   1.000  O
  O37      1.0000 0.39274  0.60726  0.66333  Biso   1.000  O
  O38      1.0000 0.03204  0.96796  0.66333  Biso   1.000  O
  O39      1.0000 0.49999  0.07521  0.68965  Biso   1.000  O
  O40      1.0000 0.92478  0.50000  0.68965  Biso   1.000  O
  Ir13     1.0000 0.21239  0.78761  0.68967  Biso   1.000  Ir
  Ir14     1.0000 0.71239  0.28761  0.71209  Biso   1.000  Ir
  O41      1.0000 0.00000  0.00000  0.71210  Biso   1.000  O
  O42      1.0000 0.42478  0.57522  0.71210  Biso   1.000  O
  O43      1.0000 0.53204  0.10726  0.73842  Biso   1.000  O
  O44      1.0000 0.89273  0.46795  0.73842  Biso   1.000  O
