data_image0
_cell_length_a       6.64164
_cell_length_b       8.72335
_cell_length_c       41.3688
_cell_angle_alpha    90
_cell_angle_beta     90
_cell_angle_gamma    90

_symmetry_space_group_name_H-M    "P 1"
_symmetry_int_tables_number       1

loop_
  _symmetry_equiv_pos_as_xyz
  'x, y, z'

loop_
  _atom_site_label
  _atom_site_occupancy
  _atom_site_fract_x
  _atom_site_fract_y
  _atom_site_fract_z
  _atom_site_thermal_displace_type
  _atom_site_B_iso_or_equiv
  _atom_site_type_symbol
  O1       1.0000 0.00000  0.00000  0.22234  Biso   1.000  O
  O2       1.0000 0.00000  0.32474  0.22748  Biso   1.000  O
  O3       1.0000 0.00000  0.67526  0.22748  Biso   1.000  O
  O4       1.0000 0.50000  0.32474  0.23956  Biso   1.000  O
  O5       1.0000 0.50000  0.67526  0.23956  Biso   1.000  O
  O6       1.0000 0.50000  0.00000  0.24470  Biso   1.000  O
  O7       1.0000 0.21239  0.17526  0.27366  Biso   1.000  O
  O8       1.0000 0.78761  0.17526  0.27366  Biso   1.000  O
  Ir1      1.0000 0.50000  0.17534  0.27366  Biso   1.000  Ir
  Ir2      1.0000 0.00000  0.32465  0.27366  Biso   1.000  Ir
  O9       1.0000 0.18035  0.50000  0.27366  Biso   1.000  O
  O10      1.0000 0.81965  0.50000  0.27366  Biso   1.000  O
  Ir3      1.0000 0.00000  0.67534  0.27366  Biso   1.000  Ir
  Ir4      1.0000 0.50000  0.82466  0.27366  Biso   1.000  Ir
  O11      1.0000 0.21239  0.82474  0.27366  Biso   1.000  O
  O12      1.0000 0.78761  0.82474  0.27366  Biso   1.000  O
  O13      1.0000 0.50000  0.00000  0.30261  Biso   1.000  O
  O14      1.0000 0.50000  0.32474  0.30776  Biso   1.000  O
  O15      1.0000 0.50000  0.67526  0.30776  Biso   1.000  O
  O16      1.0000 0.00000  0.32474  0.31983  Biso   1.000  O
  O17      1.0000 0.00000  0.67526  0.31983  Biso   1.000  O
  O18      1.0000 0.00000  0.00000  0.32498  Biso   1.000  O
  O19      1.0000 0.28761  0.17526  0.35393  Biso   1.000  O
  O20      1.0000 0.71239  0.17526  0.35393  Biso   1.000  O
  Ir5      1.0000 0.00000  0.17534  0.35393  Biso   1.000  Ir
  Ir6      1.0000 0.50000  0.32465  0.35393  Biso   1.000  Ir
  O21      1.0000 0.28761  0.82474  0.35393  Biso   1.000  O
  O22      1.0000 0.31965  0.50000  0.35393  Biso   1.000  O
  O23      1.0000 0.68035  0.50000  0.35393  Biso   1.000  O
  Ir7      1.0000 0.50000  0.67534  0.35393  Biso   1.000  Ir
  Ir8      1.0000 0.00000  0.82466  0.35393  Biso   1.000  Ir
  O24      1.0000 0.71239  0.82474  0.35393  Biso   1.000  O
  O25      1.0000 0.00000  0.00000  0.38288  Biso   1.000  O
  O26      1.0000 0.00000  0.32474  0.38803  Biso   1.000  O
  O27      1.0000 0.00000  0.67526  0.38803  Biso   1.000  O
  O28      1.0000 0.50000  0.32474  0.40010  Biso   1.000  O
  O29      1.0000 0.50000  0.67526  0.40010  Biso   1.000  O
  O30      1.0000 0.50000  0.00000  0.40525  Biso   1.000  O
  O31      1.0000 0.21239  0.17526  0.43420  Biso   1.000  O
  O32      1.0000 0.78761  0.17526  0.43420  Biso   1.000  O
  Ir9      1.0000 0.50000  0.17534  0.43420  Biso   1.000  Ir
  Ir10     1.0000 0.00000  0.32465  0.43420  Biso   1.000  Ir
  O33      1.0000 0.18035  0.50000  0.43420  Biso   1.000  O
  O34      1.0000 0.81965  0.50000  0.43420  Biso   1.000  O
  Ir11     1.0000 0.00000  0.67534  0.43420  Biso   1.000  Ir
  O35      1.0000 0.78761  0.82474  0.43420  Biso   1.000  O
  Ir12     1.0000 0.50000  0.82466  0.43420  Biso   1.000  Ir
  O36      1.0000 0.21239  0.82474  0.43420  Biso   1.000  O
  O37      1.0000 0.50000  0.00000  0.46316  Biso   1.000  O
  O38      1.0000 0.50000  0.32474  0.46830  Biso   1.000  O
  O39      1.0000 0.50000  0.67526  0.46830  Biso   1.000  O
  O40      1.0000 0.00000  0.32474  0.48038  Biso   1.000  O
  O41      1.0000 0.00000  0.67526  0.48038  Biso   1.000  O
  O42      1.0000 0.00000  0.00000  0.48552  Biso   1.000  O
  O43      1.0000 0.28761  0.17526  0.51448  Biso   1.000  O
  O44      1.0000 0.71239  0.17526  0.51448  Biso   1.000  O
  Ir13     1.0000 0.00000  0.17534  0.51448  Biso   1.000  Ir
  Ir14     1.0000 0.50000  0.32465  0.51448  Biso   1.000  Ir
  O45      1.0000 0.31965  0.50000  0.51448  Biso   1.000  O
  O46      1.0000 0.68035  0.50000  0.51448  Biso   1.000  O
  Ir15     1.0000 0.50000  0.67534  0.51448  Biso   1.000  Ir
  Ir16     1.0000 0.00000  0.82466  0.51448  Biso   1.000  Ir
  O47      1.0000 0.28761  0.82474  0.51448  Biso   1.000  O
  O48      1.0000 0.71239  0.82474  0.51448  Biso   1.000  O
  O49      1.0000 0.00000  0.00000  0.54343  Biso   1.000  O
  O50      1.0000 0.00000  0.32474  0.54858  Biso   1.000  O
  O51      1.0000 0.00000  0.67526  0.54858  Biso   1.000  O
  O52      1.0000 0.50000  0.32474  0.56065  Biso   1.000  O
  O53      1.0000 0.50000  0.67526  0.56065  Biso   1.000  O
  O54      1.0000 0.50000  0.00000  0.56580  Biso   1.000  O
