data_179197-3835-5794-AlF3_F6Al2fixed\(1\1\1)
_audit_creation_date              2018-06-18
_audit_creation_method            'Materials Studio'
_symmetry_space_group_name_H-M    'P1'
_symmetry_Int_Tables_number       1
_symmetry_cell_setting            triclinic
loop_
_symmetry_equiv_pos_as_xyz
  x,y,z
_cell_length_a                    4.8830
_cell_length_b                    4.8830
_cell_length_c                    18.6091
_cell_angle_alpha                 90.0000
_cell_angle_beta                  90.0000
_cell_angle_gamma                 60.0000
loop_
_atom_site_label
_atom_site_type_symbol
_atom_site_fract_x
_atom_site_fract_y
_atom_site_fract_z
_atom_site_U_iso_or_equiv
_atom_site_adp_type
_atom_site_occupancy
Ir1    Ir    0.19566   0.25342   0.44217   0.01267  Uiso   1.00
Ir2    Ir    0.52900   0.58675   0.67349   0.01267  Uiso   1.00
Ir3    Ir    0.52900   0.58675   0.32651   0.01267  Uiso   1.00
Ir4    Ir    0.86233   0.92009   0.55783   0.01267  Uiso   1.00
O5     O     0.54135   0.25342   0.26869   0.01267  Uiso   1.00
O6     O     0.87469   0.58675   0.50000   0.01267  Uiso   1.00
O7     O     0.20802   0.92009   0.73131   0.01267  Uiso   1.00
O8     O     0.86233   0.26580   0.38434   0.01267  Uiso   1.00
O9     O     0.19566   0.59913   0.61566   0.01267  Uiso   1.00
O10    O     0.19566   0.90773   0.26869   0.01267  Uiso   1.00
O11    O     0.52900   0.24106   0.50000   0.01267  Uiso   1.00
O12    O     0.86233   0.57440   0.73131   0.01267  Uiso   1.00
O13    O     0.51662   0.92009   0.38434   0.01267  Uiso   1.00
O14    O     0.84995   0.25342   0.61566   0.01267  Uiso   1.00
O15    O     0.84997   0.59911   0.26869   0.01267  Uiso   1.00
O16    O     0.18331   0.93244   0.50000   0.01267  Uiso   1.00
O17    O     0.51664   0.26578   0.73131   0.01267  Uiso   1.00
O18    O     0.20804   0.57438   0.38434   0.01267  Uiso   1.00
O19    O     0.54137   0.90771   0.61566   0.01267  Uiso   1.00
