data_image0
_cell_length_a       4.69635
_cell_length_b       8.72335
_cell_length_c       50.5758
_cell_angle_alpha    90
_cell_angle_beta     90
_cell_angle_gamma    90

_symmetry_space_group_name_H-M    "P 1"
_symmetry_int_tables_number       1

loop_
  _symmetry_equiv_pos_as_xyz
  'x, y, z'

loop_
  _atom_site_label
  _atom_site_occupancy
  _atom_site_fract_x
  _atom_site_fract_y
  _atom_site_fract_z
  _atom_site_thermal_displace_type
  _atom_site_B_iso_or_equiv
  _atom_site_type_symbol
  O1       1.0000 0.46794  0.17526  0.14829  Biso   1.000  O
  O2       1.0000 0.46794  0.82474  0.14829  Biso   1.000  O
  O3       1.0000 0.96794  0.32474  0.15527  Biso   1.000  O
  O4       1.0000 0.96794  0.67526  0.15527  Biso   1.000  O
  O5       1.0000 0.99999  0.00000  0.15825  Biso   1.000  O
  Ir1      1.0000 0.18033  0.17534  0.17500  Biso   1.000  Ir
  Ir2      1.0000 0.18033  0.82466  0.17500  Biso   1.000  Ir
  O6       1.0000 0.36068  0.00000  0.19174  Biso   1.000  O
  O7       1.0000 0.39273  0.32474  0.19472  Biso   1.000  O
  O8       1.0000 0.39273  0.67526  0.19472  Biso   1.000  O
  O9       1.0000 0.89272  0.17526  0.20171  Biso   1.000  O
  O10      1.0000 0.89272  0.82474  0.20171  Biso   1.000  O
  O11      1.0000 0.86068  0.50000  0.20468  Biso   1.000  O
  Ir3      1.0000 0.68033  0.32466  0.22143  Biso   1.000  Ir
  Ir4      1.0000 0.68033  0.67535  0.22143  Biso   1.000  Ir
  O12      1.0000 0.49998  0.50000  0.23818  Biso   1.000  O
  O13      1.0000 0.46794  0.17526  0.24115  Biso   1.000  O
  O14      1.0000 0.46794  0.82474  0.24115  Biso   1.000  O
  O15      1.0000 0.96794  0.32474  0.24813  Biso   1.000  O
  O16      1.0000 0.96794  0.67526  0.24813  Biso   1.000  O
  O17      1.0000 0.99999  0.00000  0.25111  Biso   1.000  O
  Ir5      1.0000 0.18033  0.17534  0.26785  Biso   1.000  Ir
  Ir6      1.0000 0.18033  0.82466  0.26785  Biso   1.000  Ir
  O18      1.0000 0.36068  0.00000  0.28460  Biso   1.000  O
  O19      1.0000 0.39273  0.32474  0.28757  Biso   1.000  O
  O20      1.0000 0.39273  0.67526  0.28757  Biso   1.000  O
  O21      1.0000 0.89272  0.17526  0.29457  Biso   1.000  O
  O22      1.0000 0.89272  0.82474  0.29457  Biso   1.000  O
  O23      1.0000 0.86068  0.50000  0.29754  Biso   1.000  O
  Ir7      1.0000 0.68033  0.32466  0.31429  Biso   1.000  Ir
  Ir8      1.0000 0.68033  0.67535  0.31429  Biso   1.000  Ir
  O24      1.0000 0.49998  0.50000  0.33103  Biso   1.000  O
  O25      1.0000 0.46794  0.17526  0.33401  Biso   1.000  O
  O26      1.0000 0.46794  0.82474  0.33401  Biso   1.000  O
  O27      1.0000 0.96794  0.32474  0.34099  Biso   1.000  O
  O28      1.0000 0.96794  0.67526  0.34099  Biso   1.000  O
  O29      1.0000 0.99999  0.00000  0.34397  Biso   1.000  O
  Ir9      1.0000 0.18033  0.17534  0.36071  Biso   1.000  Ir
  Ir10     1.0000 0.18033  0.82466  0.36071  Biso   1.000  Ir
  O30      1.0000 0.36068  0.00000  0.37746  Biso   1.000  O
  O31      1.0000 0.39273  0.32474  0.38043  Biso   1.000  O
  O32      1.0000 0.39273  0.67526  0.38043  Biso   1.000  O
  O33      1.0000 0.89272  0.17526  0.38742  Biso   1.000  O
  O34      1.0000 0.89272  0.82474  0.38742  Biso   1.000  O
  O35      1.0000 0.86068  0.50000  0.39040  Biso   1.000  O
  Ir11     1.0000 0.68033  0.32466  0.40715  Biso   1.000  Ir
  Ir12     1.0000 0.68033  0.67535  0.40715  Biso   1.000  Ir
  O36      1.0000 0.49998  0.50000  0.42389  Biso   1.000  O
  O37      1.0000 0.46794  0.17526  0.42687  Biso   1.000  O
  O38      1.0000 0.46794  0.82474  0.42687  Biso   1.000  O
  O39      1.0000 0.96794  0.32474  0.43385  Biso   1.000  O
  O40      1.0000 0.96794  0.67526  0.43385  Biso   1.000  O
  O41      1.0000 0.99999  0.00000  0.43682  Biso   1.000  O
  Ir13     1.0000 0.18033  0.17534  0.45357  Biso   1.000  Ir
  Ir14     1.0000 0.18033  0.82466  0.45357  Biso   1.000  Ir
  O42      1.0000 0.36068  0.00000  0.47032  Biso   1.000  O
  O43      1.0000 0.39273  0.32474  0.47329  Biso   1.000  O
  O44      1.0000 0.39273  0.67526  0.47329  Biso   1.000  O
  O45      1.0000 0.89272  0.17526  0.48027  Biso   1.000  O
  O46      1.0000 0.89272  0.82474  0.48027  Biso   1.000  O
  O47      1.0000 0.86068  0.50000  0.48325  Biso   1.000  O
  Ir15     1.0000 0.68033  0.32466  0.49999  Biso   1.000  Ir
  Ir16     1.0000 0.68033  0.67535  0.49999  Biso   1.000  Ir
  O48      1.0000 0.49998  0.50000  0.51675  Biso   1.000  O
  O49      1.0000 0.46794  0.17526  0.51973  Biso   1.000  O
  O50      1.0000 0.46794  0.82474  0.51973  Biso   1.000  O
  O51      1.0000 0.96794  0.32474  0.52671  Biso   1.000  O
  O52      1.0000 0.96794  0.67526  0.52671  Biso   1.000  O
  O53      1.0000 0.99999  0.00000  0.52968  Biso   1.000  O
  Ir17     1.0000 0.18033  0.17534  0.54643  Biso   1.000  Ir
  Ir18     1.0000 0.18033  0.82466  0.54643  Biso   1.000  Ir
  O54      1.0000 0.36068  0.00000  0.56318  Biso   1.000  O
  O55      1.0000 0.39273  0.32474  0.56615  Biso   1.000  O
  O56      1.0000 0.39273  0.67526  0.56615  Biso   1.000  O
  O57      1.0000 0.89272  0.17526  0.57313  Biso   1.000  O
  O58      1.0000 0.89272  0.82474  0.57313  Biso   1.000  O
  O59      1.0000 0.86068  0.50000  0.57611  Biso   1.000  O
  Ir19     1.0000 0.68033  0.32466  0.59285  Biso   1.000  Ir
  Ir20     1.0000 0.68033  0.67535  0.59285  Biso   1.000  Ir
  O60      1.0000 0.49998  0.50000  0.60960  Biso   1.000  O
  O61      1.0000 0.46794  0.17526  0.61258  Biso   1.000  O
  O62      1.0000 0.46794  0.82474  0.61258  Biso   1.000  O
  O63      1.0000 0.96794  0.32474  0.61957  Biso   1.000  O
  O64      1.0000 0.96794  0.67526  0.61957  Biso   1.000  O
  O65      1.0000 0.99999  0.00000  0.62254  Biso   1.000  O
  Ir21     1.0000 0.18034  0.17534  0.63929  Biso   1.000  Ir
  Ir22     1.0000 0.18034  0.82466  0.63929  Biso   1.000  Ir
  O66      1.0000 0.36069  0.00000  0.65603  Biso   1.000  O
  O67      1.0000 0.39274  0.32474  0.65901  Biso   1.000  O
  O68      1.0000 0.39274  0.67526  0.65901  Biso   1.000  O
  O69      1.0000 0.89273  0.17526  0.66599  Biso   1.000  O
  O70      1.0000 0.89273  0.82474  0.66599  Biso   1.000  O
  O71      1.0000 0.86069  0.50000  0.66897  Biso   1.000  O
  Ir23     1.0000 0.68034  0.32466  0.68571  Biso   1.000  Ir
  Ir24     1.0000 0.68034  0.67535  0.68571  Biso   1.000  Ir
  O72      1.0000 0.49999  0.50000  0.70246  Biso   1.000  O
  O73      1.0000 0.46795  0.17526  0.70543  Biso   1.000  O
  O74      1.0000 0.46795  0.82474  0.70543  Biso   1.000  O
  O75      1.0000 0.96795  0.32474  0.71243  Biso   1.000  O
  O76      1.0000 0.96795  0.67526  0.71243  Biso   1.000  O
  O77      1.0000 0.00000  0.00000  0.71540  Biso   1.000  O
  Ir25     1.0000 0.18034  0.17534  0.73215  Biso   1.000  Ir
  Ir26     1.0000 0.18034  0.82466  0.73215  Biso   1.000  Ir
  O78      1.0000 0.36069  0.00000  0.74889  Biso   1.000  O
  O79      1.0000 0.39274  0.32474  0.75187  Biso   1.000  O
  O80      1.0000 0.39274  0.67526  0.75187  Biso   1.000  O
  O81      1.0000 0.89273  0.17526  0.75885  Biso   1.000  O
  O82      1.0000 0.89273  0.82474  0.75885  Biso   1.000  O
  O83      1.0000 0.86069  0.50000  0.76182  Biso   1.000  O
  Ir27     1.0000 0.68034  0.32466  0.77857  Biso   1.000  Ir
  Ir28     1.0000 0.68034  0.67535  0.77857  Biso   1.000  Ir
  O84      1.0000 0.49999  0.50000  0.79532  Biso   1.000  O
  O85      1.0000 0.46795  0.17526  0.79829  Biso   1.000  O
  O86      1.0000 0.46795  0.82474  0.79829  Biso   1.000  O
  O87      1.0000 0.96795  0.32474  0.80528  Biso   1.000  O
  O88      1.0000 0.96795  0.67526  0.80528  Biso   1.000  O
  O89      1.0000 0.00000  0.00000  0.80826  Biso   1.000  O
  Ir29     1.0000 0.18034  0.17534  0.82500  Biso   1.000  Ir
  Ir30     1.0000 0.18034  0.82466  0.82500  Biso   1.000  Ir
  O90      1.0000 0.36069  0.00000  0.84175  Biso   1.000  O
  O91      1.0000 0.39274  0.32474  0.84473  Biso   1.000  O
  O92      1.0000 0.39274  0.67526  0.84473  Biso   1.000  O
  O93      1.0000 0.89273  0.17526  0.85171  Biso   1.000  O
  O94      1.0000 0.89273  0.82474  0.85171  Biso   1.000  O
