data_image0
_cell_length_a       13.3207
_cell_length_b       8.61194
_cell_length_c       24.6906
_cell_angle_alpha    90
_cell_angle_beta     90
_cell_angle_gamma    28.6802

_symmetry_space_group_name_H-M    "P 1"
_symmetry_int_tables_number       1

loop_
  _symmetry_equiv_pos_as_xyz
  'x, y, z'

loop_
  _atom_site_label
  _atom_site_occupancy
  _atom_site_fract_x
  _atom_site_fract_y
  _atom_site_fract_z
  _atom_site_thermal_displace_type
  _atom_site_B_iso_or_equiv
  _atom_site_type_symbol
  Ir1      1.0000 0.09379  0.20311  0.33652  Biso   1.000  Ir
  Ir2      1.0000 0.59379  0.70311  0.33652  Biso   1.000  Ir
  O1       1.0000 0.23769  0.62189  0.32643  Biso   1.000  O
  O2       1.0000 0.62969  0.43515  0.34904  Biso   1.000  O
  O3       1.0000 0.55789  0.97106  0.32401  Biso   1.000  O
  O4       1.0000 0.94987  0.78435  0.34661  Biso   1.000  O
  O5       1.0000 0.89200  0.31327  0.32643  Biso   1.000  O
  O6       1.0000 0.29558  0.09293  0.34661  Biso   1.000  O
  Ir3      1.0000 0.78136  0.10932  0.40191  Biso   1.000  Ir
  Ir4      1.0000 0.28136  0.60932  0.40191  Biso   1.000  Ir
  O7       1.0000 0.92526  0.52810  0.39182  Biso   1.000  O
  O8       1.0000 0.31726  0.34137  0.41443  Biso   1.000  O
  O9       1.0000 0.24546  0.87727  0.38940  Biso   1.000  O
  O10      1.0000 0.63744  0.69056  0.41200  Biso   1.000  O
  O11      1.0000 0.57957  0.21948  0.39182  Biso   1.000  O
  O12      1.0000 0.98315  0.99914  0.41200  Biso   1.000  O
  Ir5      1.0000 0.46893  0.01553  0.46730  Biso   1.000  Ir
  Ir6      1.0000 0.96893  0.51553  0.46730  Biso   1.000  Ir
  O13      1.0000 0.61283  0.43432  0.45721  Biso   1.000  O
  O14      1.0000 0.00484  0.24758  0.47982  Biso   1.000  O
  O15      1.0000 0.93303  0.78348  0.45479  Biso   1.000  O
  O16      1.0000 0.32502  0.59677  0.47739  Biso   1.000  O
  O17      1.0000 0.26714  0.12570  0.45721  Biso   1.000  O
  O18      1.0000 0.67073  0.90535  0.47739  Biso   1.000  O
  Ir7      1.0000 0.15650  0.92175  0.53269  Biso   1.000  Ir
  Ir8      1.0000 0.65650  0.42175  0.53269  Biso   1.000  Ir
  O19      1.0000 0.30040  0.34053  0.52260  Biso   1.000  O
  O20      1.0000 0.69241  0.15380  0.54521  Biso   1.000  O
  O21      1.0000 0.62061  0.68970  0.52018  Biso   1.000  O
  O22      1.0000 0.01259  0.50299  0.54278  Biso   1.000  O
  O23      1.0000 0.95471  0.03191  0.52260  Biso   1.000  O
  O24      1.0000 0.35830  0.81157  0.54278  Biso   1.000  O
  Ir9      1.0000 0.84407  0.82796  0.59808  Biso   1.000  Ir
  Ir10     1.0000 0.34407  0.32796  0.59808  Biso   1.000  Ir
  O25      1.0000 0.98798  0.24674  0.58799  Biso   1.000  O
  O26      1.0000 0.37998  0.06001  0.61060  Biso   1.000  O
  O27      1.0000 0.30818  0.59591  0.58557  Biso   1.000  O
  O28      1.0000 0.70016  0.40920  0.60817  Biso   1.000  O
  O29      1.0000 0.64229  0.93812  0.58799  Biso   1.000  O
  O30      1.0000 0.04587  0.71778  0.60817  Biso   1.000  O
  Ir11     1.0000 0.53165  0.73418  0.66347  Biso   1.000  Ir
  Ir12     1.0000 0.03165  0.23418  0.66347  Biso   1.000  Ir
  O31      1.0000 0.67555  0.15296  0.65338  Biso   1.000  O
  O32      1.0000 0.06755  0.96622  0.67599  Biso   1.000  O
  O33      1.0000 0.99575  0.50213  0.65096  Biso   1.000  O
  O34      1.0000 0.38773  0.31542  0.67356  Biso   1.000  O
  O35      1.0000 0.32986  0.84434  0.65338  Biso   1.000  O
  O36      1.0000 0.73344  0.62400  0.67356  Biso   1.000  O
