data_image0
_cell_length_a       8.61194
_cell_length_b       5.1456
_cell_length_c       27.6767
_cell_angle_alpha    90
_cell_angle_beta     90
_cell_angle_gamma    93.4064

_symmetry_space_group_name_H-M    "P 1"
_symmetry_int_tables_number       1

loop_
  _symmetry_equiv_pos_as_xyz
  'x, y, z'

loop_
  _atom_site_label
  _atom_site_occupancy
  _atom_site_fract_x
  _atom_site_fract_y
  _atom_site_fract_z
  _atom_site_thermal_displace_type
  _atom_site_B_iso_or_equiv
  _atom_site_type_symbol
  O1       1.0000 0.61912  0.78483  0.27099  Biso   1.000  O
  O2       1.0000 0.11912  0.28483  0.27099  Biso   1.000  O
  O3       1.0000 0.56934  0.27989  0.29339  Biso   1.000  O
  O4       1.0000 0.06934  0.77990  0.29339  Biso   1.000  O
  Ir1      1.0000 0.46131  0.94968  0.30728  Biso   1.000  Ir
  Ir2      1.0000 0.96132  0.44967  0.30728  Biso   1.000  Ir
  O5       1.0000 0.85329  0.11945  0.32119  Biso   1.000  O
  O6       1.0000 0.35329  0.61945  0.32119  Biso   1.000  O
  O7       1.0000 0.30350  0.11449  0.34360  Biso   1.000  O
  O8       1.0000 0.80350  0.61450  0.34360  Biso   1.000  O
  O9       1.0000 0.58087  0.93669  0.36600  Biso   1.000  O
  O10      1.0000 0.08088  0.43669  0.36600  Biso   1.000  O
  Ir3      1.0000 0.80000  0.93362  0.37990  Biso   1.000  Ir
  Ir4      1.0000 0.30000  0.43362  0.37990  Biso   1.000  Ir
  O11      1.0000 0.51913  0.43055  0.39379  Biso   1.000  O
  O12      1.0000 0.01913  0.93056  0.39379  Biso   1.000  O
  O13      1.0000 0.29648  0.75275  0.41619  Biso   1.000  O
  O14      1.0000 0.79648  0.25275  0.41619  Biso   1.000  O
  O15      1.0000 0.74670  0.74781  0.43860  Biso   1.000  O
  O16      1.0000 0.24670  0.24780  0.43860  Biso   1.000  O
  Ir5      1.0000 0.13868  0.91758  0.45249  Biso   1.000  Ir
  Ir6      1.0000 0.63868  0.41758  0.45249  Biso   1.000  Ir
  O17      1.0000 0.53065  0.08737  0.46640  Biso   1.000  O
  O18      1.0000 0.03065  0.58737  0.46640  Biso   1.000  O
  O19      1.0000 0.48086  0.58240  0.48880  Biso   1.000  O
  O20      1.0000 0.98087  0.08240  0.48880  Biso   1.000  O
  O21      1.0000 0.25824  0.90461  0.51121  Biso   1.000  O
  O22      1.0000 0.75824  0.40461  0.51121  Biso   1.000  O
  Ir7      1.0000 0.47736  0.90154  0.52510  Biso   1.000  Ir
  Ir8      1.0000 0.97737  0.40154  0.52510  Biso   1.000  Ir
  O23      1.0000 0.69649  0.89847  0.53900  Biso   1.000  O
  O24      1.0000 0.19649  0.39847  0.53900  Biso   1.000  O
  O25      1.0000 0.47384  0.22067  0.56140  Biso   1.000  O
  O26      1.0000 0.97385  0.72067  0.56140  Biso   1.000  O
  O27      1.0000 0.42407  0.71573  0.58381  Biso   1.000  O
  O28      1.0000 0.92407  0.21572  0.58381  Biso   1.000  O
  Ir9      1.0000 0.81605  0.88550  0.59770  Biso   1.000  Ir
  Ir10     1.0000 0.31604  0.38549  0.59770  Biso   1.000  Ir
  O29      1.0000 0.20802  0.05528  0.61161  Biso   1.000  O
  O30      1.0000 0.70802  0.55528  0.61161  Biso   1.000  O
  O31      1.0000 0.65823  0.05032  0.63400  Biso   1.000  O
  O32      1.0000 0.15823  0.55032  0.63400  Biso   1.000  O
  O33      1.0000 0.43561  0.37253  0.65640  Biso   1.000  O
  O34      1.0000 0.93561  0.87253  0.65640  Biso   1.000  O
  Ir11     1.0000 0.15473  0.86946  0.67031  Biso   1.000  Ir
  Ir12     1.0000 0.65472  0.36946  0.67031  Biso   1.000  Ir
  O35      1.0000 0.37385  0.86638  0.68420  Biso   1.000  O
  O36      1.0000 0.87385  0.36638  0.68420  Biso   1.000  O
  O37      1.0000 0.65120  0.68858  0.70661  Biso   1.000  O
  O38      1.0000 0.15121  0.18857  0.70661  Biso   1.000  O
  O39      1.0000 0.60143  0.18364  0.72901  Biso   1.000  O
  O40      1.0000 0.10143  0.68365  0.72901  Biso   1.000  O
