data_image0
_cell_length_a       5.9119
_cell_length_b       17.836
_cell_length_c       20
_cell_angle_alpha    90
_cell_angle_beta     90
_cell_angle_gamma    90

_symmetry_space_group_name_H-M    "P 1"
_symmetry_int_tables_number       1

loop_
  _symmetry_equiv_pos_as_xyz
  'x, y, z'

loop_
  _atom_site_label
  _atom_site_occupancy
  _atom_site_fract_x
  _atom_site_fract_y
  _atom_site_fract_z
  _atom_site_thermal_displace_type
  _atom_site_B_iso_or_equiv
  _atom_site_type_symbol
  Ir1      1.0000 0.75900  0.95824  0.29497  Biso   1.000  Ir
  Ir2      1.0000 0.75900  0.12529  0.29497  Biso   1.000  Ir
  Ir3      1.0000 0.25900  0.62529  0.29497  Biso   1.000  Ir
  Ir4      1.0000 0.25900  0.45824  0.29497  Biso   1.000  Ir
  Ir5      1.0000 0.25648  0.11878  0.50314  Biso   1.000  Ir
  Ir6      1.0000 0.29279  0.94966  0.50843  Biso   1.000  Ir
  Ir7      1.0000 0.74055  0.44865  0.51063  Biso   1.000  Ir
  Ir8      1.0000 0.75183  0.61883  0.50304  Biso   1.000  Ir
  Ir9      1.0000 0.53061  0.19426  0.61486  Biso   1.000  Ir
  Ir10     1.0000 0.59797  0.88350  0.62146  Biso   1.000  Ir
  Ir11     1.0000 0.48689  0.36968  0.62965  Biso   1.000  Ir
  Ir12     1.0000 0.45484  0.69163  0.61502  Biso   1.000  Ir
  Ir13     1.0000 0.00900  0.20836  0.40055  Biso   1.000  Ir
  Ir14     1.0000 0.00900  0.87517  0.40055  Biso   1.000  Ir
  Ir15     1.0000 0.00900  0.37517  0.40055  Biso   1.000  Ir
  Ir16     1.0000 0.00900  0.70836  0.40055  Biso   1.000  Ir
  O1       1.0000 0.79300  0.95676  0.39295  Biso   1.000  O
  O2       1.0000 0.79300  0.12676  0.39295  Biso   1.000  O
  O3       1.0000 0.22500  0.62676  0.39295  Biso   1.000  O
  O4       1.0000 0.22500  0.45676  0.39295  Biso   1.000  O
  O5       1.0000 0.99100  0.04176  0.28610  Biso   1.000  O
  O6       1.0000 0.02700  0.54176  0.28610  Biso   1.000  O
  O7       1.0000 0.52700  0.04176  0.30384  Biso   1.000  O
  O8       1.0000 0.49100  0.54176  0.30384  Biso   1.000  O
  O9       1.0000 0.53900  0.87977  0.29159  Biso   1.000  O
  O10      1.0000 0.53900  0.20376  0.29159  Biso   1.000  O
  O11      1.0000 0.47900  0.70376  0.29159  Biso   1.000  O
  O12      1.0000 0.47900  0.37977  0.29159  Biso   1.000  O
  O13      1.0000 0.97900  0.20376  0.29835  Biso   1.000  O
  O14      1.0000 0.97900  0.87977  0.29835  Biso   1.000  O
  O15      1.0000 0.03900  0.37977  0.29835  Biso   1.000  O
  O16      1.0000 0.03900  0.70376  0.29835  Biso   1.000  O
  O17      1.0000 0.78794  0.14736  0.61643  Biso   1.000  O
  O18      1.0000 0.30668  0.93240  0.60323  Biso   1.000  O
  O19      1.0000 0.28608  0.12854  0.60357  Biso   1.000  O
  O20      1.0000 0.75386  0.96636  0.63242  Biso   1.000  O
  O21      1.0000 0.23986  0.42441  0.61438  Biso   1.000  O
  O22      1.0000 0.72312  0.63588  0.60310  Biso   1.000  O
  O23      1.0000 0.72694  0.44153  0.60522  Biso   1.000  O
  O24      1.0000 0.22243  0.63496  0.62976  Biso   1.000  O
  O25      1.0000 0.22500  0.12676  0.40815  Biso   1.000  O
  O26      1.0000 0.22500  0.95676  0.40815  Biso   1.000  O
  O27      1.0000 0.79300  0.45676  0.40815  Biso   1.000  O
  O28      1.0000 0.79300  0.62676  0.40815  Biso   1.000  O
  O29      1.0000 0.70576  0.29229  0.61729  Biso   1.000  O
  O30      1.0000 0.37328  0.78675  0.59232  Biso   1.000  O
  O31      1.0000 0.30595  0.28291  0.62055  Biso   1.000  O
  O32      1.0000 0.80857  0.81787  0.60214  Biso   1.000  O
  O33      1.0000 0.22800  0.29176  0.40055  Biso   1.000  O
  O34      1.0000 0.79000  0.79176  0.40055  Biso   1.000  O
  O35      1.0000 0.79000  0.29176  0.40055  Biso   1.000  O
  O36      1.0000 0.22800  0.79176  0.40055  Biso   1.000  O
  O37      1.0000 0.07555  0.03488  0.52017  Biso   1.000  O
  O38      1.0000 0.94602  0.53859  0.52120  Biso   1.000  O
  O39      1.0000 0.47471  0.03828  0.50069  Biso   1.000  O
  O40      1.0000 0.54681  0.53286  0.50053  Biso   1.000  O
  O41      1.0000 0.48811  0.19559  0.51933  Biso   1.000  O
  O42      1.0000 0.50038  0.86078  0.70163  Biso   1.000  O
  O43      1.0000 0.46518  0.18470  0.70953  Biso   1.000  O
  O44      1.0000 0.56246  0.89481  0.51844  Biso   1.000  O
  O45      1.0000 0.50548  0.38111  0.51974  Biso   1.000  O
  O46      1.0000 0.55677  0.71691  0.69572  Biso   1.000  O
  O47      1.0000 0.54316  0.39157  0.71308  Biso   1.000  O
  O48      1.0000 0.48830  0.67929  0.51705  Biso   1.000  O
  O49      1.0000 0.05094  0.88290  0.49747  Biso   1.000  O
  O50      1.0000 0.01058  0.19097  0.49503  Biso   1.000  O
  O51      1.0000 0.98833  0.69248  0.49589  Biso   1.000  O
  O52      1.0000 0.99048  0.38601  0.49852  Biso   1.000  O
  O53      1.0000 0.55570  0.24155  0.75201  Biso   1.000  O
  H1       1.0000 0.43244  0.24645  0.78472  Biso   1.000  H
