data_image0
_cell_length_a       5.9119
_cell_length_b       8.4461
_cell_length_c       60
_cell_angle_alpha    90
_cell_angle_beta     90
_cell_angle_gamma    90

_symmetry_space_group_name_H-M    "P 1"
_symmetry_int_tables_number       1

loop_
  _symmetry_equiv_pos_as_xyz
  'x, y, z'

loop_
  _atom_site_label
  _atom_site_occupancy
  _atom_site_fract_x
  _atom_site_fract_y
  _atom_site_fract_z
  _atom_site_thermal_displace_type
  _atom_site_B_iso_or_equiv
  _atom_site_type_symbol
  Ir1      1.0000 0.75900  0.75900  0.49925  Biso   1.000  Ir
  Ir2      1.0000 0.25900  0.25900  0.49925  Biso   1.000  Ir
  Ir3      1.0000 0.75900  0.25900  0.35060  Biso   1.000  Ir
  Ir4      1.0000 0.25900  0.75900  0.40027  Biso   1.000  Ir
  Ir5      1.0000 0.25900  0.75900  0.35060  Biso   1.000  Ir
  Ir6      1.0000 0.75900  0.25900  0.40027  Biso   1.000  Ir
  Ir7      1.0000 0.50900  0.50900  0.47456  Biso   1.000  Ir
  Ir8      1.0000 0.50900  0.50900  0.32591  Biso   1.000  Ir
  Ir9      1.0000 0.50900  0.50900  0.42496  Biso   1.000  Ir
  Ir10     1.0000 0.00900  0.00900  0.47456  Biso   1.000  Ir
  Ir11     1.0000 0.00900  0.00900  0.32591  Biso   1.000  Ir
  Ir12     1.0000 0.00900  0.00900  0.42496  Biso   1.000  Ir
  O1       1.0000 0.29300  0.49100  0.49880  Biso   1.000  O
  O2       1.0000 0.72500  0.52700  0.49880  Biso   1.000  O
  O3       1.0000 0.29300  0.52700  0.35018  Biso   1.000  O
  O4       1.0000 0.72500  0.49100  0.40071  Biso   1.000  O
  O5       1.0000 0.72500  0.49100  0.35018  Biso   1.000  O
  O6       1.0000 0.29300  0.52700  0.40071  Biso   1.000  O
  O7       1.0000 0.79300  0.99100  0.49880  Biso   1.000  O
  O8       1.0000 0.22500  0.02700  0.49880  Biso   1.000  O
  O9       1.0000 0.79300  0.02700  0.35018  Biso   1.000  O
  O10      1.0000 0.22500  0.99100  0.40071  Biso   1.000  O
  O11      1.0000 0.22500  0.99100  0.35018  Biso   1.000  O
  O12      1.0000 0.79300  0.02700  0.40071  Biso   1.000  O
  O13      1.0000 0.29000  0.50900  0.44975  Biso   1.000  O
  O14      1.0000 0.72800  0.50900  0.44975  Biso   1.000  O
  O15      1.0000 0.79000  0.00900  0.44975  Biso   1.000  O
  O16      1.0000 0.22800  0.00900  0.44975  Biso   1.000  O
  O17      1.0000 0.99100  0.28000  0.37544  Biso   1.000  O
  O18      1.0000 0.02700  0.73800  0.37544  Biso   1.000  O
  O19      1.0000 0.49100  0.78000  0.37544  Biso   1.000  O
  O20      1.0000 0.52700  0.23800  0.37544  Biso   1.000  O
  O21      1.0000 0.53900  0.75100  0.47592  Biso   1.000  O
  O22      1.0000 0.47900  0.26700  0.47592  Biso   1.000  O
  O23      1.0000 0.53900  0.26700  0.32729  Biso   1.000  O
  O24      1.0000 0.47900  0.75100  0.42360  Biso   1.000  O
  O25      1.0000 0.47900  0.75100  0.32729  Biso   1.000  O
  O26      1.0000 0.53900  0.26700  0.42360  Biso   1.000  O
  O27      1.0000 0.03900  0.25100  0.47592  Biso   1.000  O
  O28      1.0000 0.97900  0.76700  0.47592  Biso   1.000  O
  O29      1.0000 0.03900  0.76700  0.32729  Biso   1.000  O
  O30      1.0000 0.97900  0.25100  0.42360  Biso   1.000  O
  O31      1.0000 0.97900  0.25100  0.32729  Biso   1.000  O
  O32      1.0000 0.03900  0.76700  0.42360  Biso   1.000  O
  Ir13     1.0000 0.25900  0.25900  0.54891  Biso   1.000  Ir
  Ir14     1.0000 0.75900  0.75900  0.54891  Biso   1.000  Ir
  Ir15     1.0000 0.50900  0.50900  0.57360  Biso   1.000  Ir
  Ir16     1.0000 0.50900  0.50900  0.62319  Biso   1.000  Ir
  Ir17     1.0000 0.00900  0.00900  0.57360  Biso   1.000  Ir
  Ir18     1.0000 0.00900  0.00900  0.62319  Biso   1.000  Ir
  O33      1.0000 0.72500  0.52700  0.54934  Biso   1.000  O
  O34      1.0000 0.29300  0.49100  0.54934  Biso   1.000  O
  O35      1.0000 0.22500  0.02700  0.54934  Biso   1.000  O
  O36      1.0000 0.79300  0.99100  0.54934  Biso   1.000  O
  O37      1.0000 0.72800  0.50900  0.59840  Biso   1.000  O
  O38      1.0000 0.29000  0.50900  0.59840  Biso   1.000  O
  O39      1.0000 0.22800  0.00900  0.59840  Biso   1.000  O
  O40      1.0000 0.79000  0.00900  0.59840  Biso   1.000  O
  O41      1.0000 0.02700  0.28000  0.52408  Biso   1.000  O
  O42      1.0000 0.99100  0.73800  0.52408  Biso   1.000  O
  O43      1.0000 0.52700  0.78000  0.52408  Biso   1.000  O
  O44      1.0000 0.49100  0.23800  0.52408  Biso   1.000  O
  O45      1.0000 0.47900  0.26700  0.57223  Biso   1.000  O
  O46      1.0000 0.53900  0.75100  0.57223  Biso   1.000  O
  O47      1.0000 0.53900  0.26700  0.62454  Biso   1.000  O
  O48      1.0000 0.47900  0.75100  0.62454  Biso   1.000  O
  O49      1.0000 0.97900  0.76700  0.57223  Biso   1.000  O
  O50      1.0000 0.03900  0.25100  0.57223  Biso   1.000  O
  O51      1.0000 0.03900  0.76700  0.62454  Biso   1.000  O
  O52      1.0000 0.97900  0.25100  0.62454  Biso   1.000  O
