data_image0
_cell_length_a       5.15478
_cell_length_b       5.15478
_cell_length_c       53.508
_cell_angle_alpha    90
_cell_angle_beta     90
_cell_angle_gamma    110.019

_symmetry_space_group_name_H-M    "P 1"
_symmetry_int_tables_number       1

loop_
  _symmetry_equiv_pos_as_xyz
  'x, y, z'

loop_
  _atom_site_label
  _atom_site_occupancy
  _atom_site_fract_x
  _atom_site_fract_y
  _atom_site_fract_z
  _atom_site_thermal_displace_type
  _atom_site_B_iso_or_equiv
  _atom_site_type_symbol
  Ir1      1.0000 0.50000  0.09900  0.79157  Biso   1.000  Ir
  Ir2      1.0000 0.50000  0.09900  0.51392  Biso   1.000  Ir
  Ir3      1.0000 0.00000  0.59900  0.68059  Biso   1.000  Ir
  Ir4      1.0000 0.00000  0.59900  0.62490  Biso   1.000  Ir
  Ir5      1.0000 0.00000  0.09900  0.76388  Biso   1.000  Ir
  Ir6      1.0000 0.00000  0.09900  0.54161  Biso   1.000  Ir
  Ir7      1.0000 0.00000  0.09900  0.70827  Biso   1.000  Ir
  Ir8      1.0000 0.00000  0.09900  0.59721  Biso   1.000  Ir
  Ir9      1.0000 0.50000  0.09900  0.45824  Biso   1.000  Ir
  Ir10     1.0000 0.50000  0.09900  0.18059  Biso   1.000  Ir
  Ir11     1.0000 0.00000  0.59900  0.34725  Biso   1.000  Ir
  Ir12     1.0000 0.00000  0.59900  0.29157  Biso   1.000  Ir
  Ir13     1.0000 0.00000  0.09900  0.43055  Biso   1.000  Ir
  Ir14     1.0000 0.00000  0.09900  0.20828  Biso   1.000  Ir
  Ir15     1.0000 0.00000  0.09900  0.37494  Biso   1.000  Ir
  Ir16     1.0000 0.00000  0.09900  0.26388  Biso   1.000  Ir
  O1       1.0000 0.76600  0.90100  0.79108  Biso   1.000  O
  O2       1.0000 0.23400  0.29700  0.51441  Biso   1.000  O
  O3       1.0000 0.23400  0.29700  0.79108  Biso   1.000  O
  O4       1.0000 0.76600  0.90100  0.51441  Biso   1.000  O
  O5       1.0000 0.19800  0.33300  0.68108  Biso   1.000  O
  O6       1.0000 0.80200  0.86500  0.62441  Biso   1.000  O
  O7       1.0000 0.80200  0.86500  0.68108  Biso   1.000  O
  O8       1.0000 0.19800  0.33300  0.62441  Biso   1.000  O
  O9       1.0000 0.78100  0.88000  0.73608  Biso   1.000  O
  O10      1.0000 0.21900  0.31800  0.56941  Biso   1.000  O
  O11      1.0000 0.21900  0.31800  0.73608  Biso   1.000  O
  O12      1.0000 0.78100  0.88000  0.56941  Biso   1.000  O
  O13      1.0000 0.71100  0.35200  0.81941  Biso   1.000  O
  O14      1.0000 0.28900  0.84600  0.81941  Biso   1.000  O
  O15      1.0000 0.74700  0.38800  0.65274  Biso   1.000  O
  O16      1.0000 0.25300  0.81000  0.65274  Biso   1.000  O
  O17      1.0000 0.27200  0.88700  0.76541  Biso   1.000  O
  O18      1.0000 0.72800  0.31100  0.54008  Biso   1.000  O
  O19      1.0000 0.72800  0.31100  0.76541  Biso   1.000  O
  O20      1.0000 0.27200  0.88700  0.54008  Biso   1.000  O
  O21      1.0000 0.21200  0.82700  0.70675  Biso   1.000  O
  O22      1.0000 0.78800  0.37100  0.59874  Biso   1.000  O
  O23      1.0000 0.78800  0.37100  0.70675  Biso   1.000  O
  O24      1.0000 0.21200  0.82700  0.59874  Biso   1.000  O
  O25      1.0000 0.76600  0.90100  0.45774  Biso   1.000  O
  O26      1.0000 0.23400  0.29700  0.18108  Biso   1.000  O
  O27      1.0000 0.23400  0.29700  0.45774  Biso   1.000  O
  O28      1.0000 0.76600  0.90100  0.18108  Biso   1.000  O
  O29      1.0000 0.19800  0.33300  0.34774  Biso   1.000  O
  O30      1.0000 0.80200  0.86500  0.29108  Biso   1.000  O
  O31      1.0000 0.80200  0.86500  0.34774  Biso   1.000  O
  O32      1.0000 0.19800  0.33300  0.29108  Biso   1.000  O
  O33      1.0000 0.78100  0.88000  0.40274  Biso   1.000  O
  O34      1.0000 0.21900  0.31800  0.23608  Biso   1.000  O
  O35      1.0000 0.21900  0.31800  0.40274  Biso   1.000  O
  O36      1.0000 0.78100  0.88000  0.23608  Biso   1.000  O
  O37      1.0000 0.71100  0.35200  0.48608  Biso   1.000  O
  O38      1.0000 0.28900  0.84600  0.48608  Biso   1.000  O
  O39      1.0000 0.74700  0.38800  0.31941  Biso   1.000  O
  O40      1.0000 0.25300  0.81000  0.31941  Biso   1.000  O
  O41      1.0000 0.27200  0.88700  0.43208  Biso   1.000  O
  O42      1.0000 0.72800  0.31100  0.20675  Biso   1.000  O
  O43      1.0000 0.72800  0.31100  0.43208  Biso   1.000  O
  O44      1.0000 0.27200  0.88700  0.20675  Biso   1.000  O
  O45      1.0000 0.21200  0.82700  0.37341  Biso   1.000  O
  O46      1.0000 0.78800  0.37100  0.26541  Biso   1.000  O
  O47      1.0000 0.78800  0.37100  0.37341  Biso   1.000  O
  O48      1.0000 0.21200  0.82700  0.26541  Biso   1.000  O
