data_image0
_cell_length_a       5.15478
_cell_length_b       5.15478
_cell_length_c       50.1822
_cell_angle_alpha    90
_cell_angle_beta     90
_cell_angle_gamma    69.9807

loop_
  _atom_site_label
  _atom_site_occupancy
  _atom_site_fract_x
  _atom_site_fract_y
  _atom_site_fract_z
  _atom_site_thermal_displace_type
  _atom_site_B_iso_or_equiv
  _atom_site_type_symbol
  O1       1.0000 0.74700  0.21100  0.15942  Biso   1.000  O
  O2       1.0000 0.25300  0.78900  0.15942  Biso   1.000  O
  Ir1      1.0000 0.00000  0.00000  0.18911  Biso   1.000  Ir
  O3       1.0000 0.19800  0.26600  0.18963  Biso   1.000  O
  O4       1.0000 0.80200  0.73400  0.18963  Biso   1.000  O
  O5       1.0000 0.78800  0.22800  0.21700  Biso   1.000  O
  O6       1.0000 0.21200  0.77200  0.21700  Biso   1.000  O
  Ir2      1.0000 0.00000  0.50000  0.21863  Biso   1.000  Ir
  O7       1.0000 0.21900  0.28100  0.24828  Biso   1.000  O
  O8       1.0000 0.78100  0.71900  0.24828  Biso   1.000  O
  Ir3      1.0000 0.00000  0.50000  0.27792  Biso   1.000  Ir
  O9       1.0000 0.72800  0.28800  0.27955  Biso   1.000  O
  O10      1.0000 0.27200  0.71200  0.27955  Biso   1.000  O
  O11      1.0000 0.23400  0.30200  0.30692  Biso   1.000  O
  O12      1.0000 0.76600  0.69800  0.30692  Biso   1.000  O
  Ir4      1.0000 0.50000  0.50000  0.30744  Biso   1.000  Ir
  O13      1.0000 0.71100  0.24700  0.33713  Biso   1.000  O
  O14      1.0000 0.28900  0.75300  0.33713  Biso   1.000  O
  Ir5      1.0000 0.50000  0.50000  0.36682  Biso   1.000  Ir
  O15      1.0000 0.23400  0.30200  0.36734  Biso   1.000  O
  O16      1.0000 0.76600  0.69800  0.36734  Biso   1.000  O
  O17      1.0000 0.72800  0.28800  0.39471  Biso   1.000  O
  O18      1.0000 0.27200  0.71200  0.39471  Biso   1.000  O
  Ir6      1.0000 0.00000  0.50000  0.39634  Biso   1.000  Ir
  O19      1.0000 0.21900  0.28100  0.42599  Biso   1.000  O
  O20      1.0000 0.78100  0.71900  0.42599  Biso   1.000  O
  Ir7      1.0000 0.00000  0.50000  0.45563  Biso   1.000  Ir
  O21      1.0000 0.78800  0.22800  0.45727  Biso   1.000  O
  O22      1.0000 0.21200  0.77200  0.45727  Biso   1.000  O
  O23      1.0000 0.19800  0.26600  0.48463  Biso   1.000  O
  O24      1.0000 0.80200  0.73400  0.48463  Biso   1.000  O
  Ir8      1.0000 0.00000  0.00000  0.48516  Biso   1.000  Ir
  O25      1.0000 0.74700  0.21100  0.51484  Biso   1.000  O
  O26      1.0000 0.25300  0.78900  0.51484  Biso   1.000  O
  Ir9      1.0000 0.00000  0.00000  0.54453  Biso   1.000  Ir
  O27      1.0000 0.19800  0.26600  0.54506  Biso   1.000  O
  O28      1.0000 0.80200  0.73400  0.54506  Biso   1.000  O
  O29      1.0000 0.78800  0.22800  0.57242  Biso   1.000  O
  O30      1.0000 0.21200  0.77200  0.57242  Biso   1.000  O
  Ir10     1.0000 0.00000  0.50000  0.57405  Biso   1.000  Ir
  O31      1.0000 0.21900  0.28100  0.60370  Biso   1.000  O
  O32      1.0000 0.78100  0.71900  0.60370  Biso   1.000  O
  Ir11     1.0000 0.00000  0.50000  0.63335  Biso   1.000  Ir
  O33      1.0000 0.72800  0.28800  0.63498  Biso   1.000  O
  O34      1.0000 0.27200  0.71200  0.63498  Biso   1.000  O
  O35      1.0000 0.23400  0.30200  0.66235  Biso   1.000  O
  O36      1.0000 0.76600  0.69800  0.66235  Biso   1.000  O
  Ir12     1.0000 0.50000  0.50000  0.66287  Biso   1.000  Ir
  O37      1.0000 0.71100  0.24700  0.69256  Biso   1.000  O
  O38      1.0000 0.28900  0.75300  0.69256  Biso   1.000  O
  Ir13     1.0000 0.50000  0.50000  0.72225  Biso   1.000  Ir
  O39      1.0000 0.23400  0.30200  0.72277  Biso   1.000  O
  O40      1.0000 0.76600  0.69800  0.72277  Biso   1.000  O
  O41      1.0000 0.72800  0.28800  0.75014  Biso   1.000  O
  O42      1.0000 0.27200  0.71200  0.75014  Biso   1.000  O
  Ir14     1.0000 0.00000  0.50000  0.75177  Biso   1.000  Ir
  O43      1.0000 0.21900  0.28100  0.78141  Biso   1.000  O
  O44      1.0000 0.78100  0.71900  0.78141  Biso   1.000  O
  Ir15     1.0000 0.00000  0.50000  0.81106  Biso   1.000  Ir
  O45      1.0000 0.78800  0.22800  0.81269  Biso   1.000  O
  O46      1.0000 0.21200  0.77200  0.81269  Biso   1.000  O
  O47      1.0000 0.19800  0.26600  0.84006  Biso   1.000  O
  O48      1.0000 0.80200  0.73400  0.84006  Biso   1.000  O
  Ir16     1.0000 0.00000  0.00000  0.84058  Biso   1.000  Ir
