data_image0
_cell_length_a       4.88305
_cell_length_b       5.1456
_cell_length_c       55.5684
_cell_angle_alpha    90
_cell_angle_beta     90
_cell_angle_gamma    61.674

_symmetry_space_group_name_H-M    "P 1"
_symmetry_int_tables_number       1

loop_
  _symmetry_equiv_pos_as_xyz
  'x, y, z'

loop_
  _atom_site_label
  _atom_site_occupancy
  _atom_site_fract_x
  _atom_site_fract_y
  _atom_site_fract_z
  _atom_site_thermal_displace_type
  _atom_site_B_iso_or_equiv
  _atom_site_type_symbol
  O1       1.0000 0.07892  0.80509  0.15781  Biso   1.000  O
  O2       1.0000 0.17847  0.26026  0.16897  Biso   1.000  O
  O3       1.0000 0.62375  0.71542  0.18013  Biso   1.000  O
  Ir1      1.0000 0.18550  0.93762  0.18705  Biso   1.000  Ir
  O4       1.0000 0.74726  0.15981  0.19397  Biso   1.000  O
  O5       1.0000 0.19251  0.61498  0.20513  Biso   1.000  O
  O6       1.0000 0.29209  0.07015  0.21629  Biso   1.000  O
  Ir2      1.0000 0.50814  0.29234  0.22321  Biso   1.000  Ir
  O7       1.0000 0.72420  0.51454  0.23013  Biso   1.000  O
  O8       1.0000 0.82375  0.96970  0.24129  Biso   1.000  O
  O9       1.0000 0.26903  0.42487  0.25245  Biso   1.000  O
  Ir3      1.0000 0.83078  0.64707  0.25937  Biso   1.000  Ir
  O10      1.0000 0.39254  0.86926  0.26629  Biso   1.000  O
  O11      1.0000 0.83779  0.32443  0.27745  Biso   1.000  O
  O12      1.0000 0.93737  0.77960  0.28861  Biso   1.000  O
  Ir4      1.0000 0.15342  0.00179  0.29553  Biso   1.000  Ir
  O13      1.0000 0.36947  0.22399  0.30245  Biso   1.000  O
  O14      1.0000 0.46902  0.67915  0.31361  Biso   1.000  O
  O15      1.0000 0.91431  0.13431  0.32477  Biso   1.000  O
  Ir5      1.0000 0.47605  0.35651  0.33170  Biso   1.000  Ir
  O16      1.0000 0.03781  0.57870  0.33862  Biso   1.000  O
  O17      1.0000 0.48306  0.03387  0.34978  Biso   1.000  O
  O18      1.0000 0.58264  0.48904  0.36093  Biso   1.000  O
  Ir6      1.0000 0.79869  0.71124  0.36786  Biso   1.000  Ir
  O19      1.0000 0.01475  0.93343  0.37478  Biso   1.000  O
  O20      1.0000 0.11430  0.38860  0.38594  Biso   1.000  O
  O21      1.0000 0.55958  0.84376  0.39710  Biso   1.000  O
  Ir7      1.0000 0.12133  0.06596  0.40402  Biso   1.000  Ir
  O22      1.0000 0.68309  0.28815  0.41094  Biso   1.000  O
  O23      1.0000 0.12834  0.74332  0.42210  Biso   1.000  O
  O24      1.0000 0.22792  0.19849  0.43326  Biso   1.000  O
  Ir8      1.0000 0.44397  0.42068  0.44018  Biso   1.000  Ir
  O25      1.0000 0.66003  0.64288  0.44710  Biso   1.000  O
  O26      1.0000 0.75958  0.09804  0.45826  Biso   1.000  O
  O27      1.0000 0.20486  0.55321  0.46942  Biso   1.000  O
  Ir9      1.0000 0.76661  0.77541  0.47634  Biso   1.000  Ir
  O28      1.0000 0.32837  0.99760  0.48326  Biso   1.000  O
  O29      1.0000 0.77362  0.45277  0.49442  Biso   1.000  O
  O30      1.0000 0.87320  0.90794  0.50558  Biso   1.000  O
  Ir10     1.0000 0.08925  0.13013  0.51250  Biso   1.000  Ir
  O31      1.0000 0.30530  0.35233  0.51942  Biso   1.000  O
  O32      1.0000 0.40485  0.80749  0.53058  Biso   1.000  O
  O33      1.0000 0.85014  0.26265  0.54174  Biso   1.000  O
  Ir11     1.0000 0.41188  0.48485  0.54866  Biso   1.000  Ir
  O34      1.0000 0.97364  0.70704  0.55558  Biso   1.000  O
  O35      1.0000 0.41889  0.16221  0.56674  Biso   1.000  O
  O36      1.0000 0.51847  0.61738  0.57790  Biso   1.000  O
  Ir12     1.0000 0.73452  0.83958  0.58482  Biso   1.000  Ir
  O37      1.0000 0.95058  0.06177  0.59174  Biso   1.000  O
  O38      1.0000 0.05013  0.51694  0.60290  Biso   1.000  O
  O39      1.0000 0.49541  0.97210  0.61406  Biso   1.000  O
  Ir13     1.0000 0.05716  0.19430  0.62099  Biso   1.000  Ir
  O40      1.0000 0.61892  0.41649  0.62791  Biso   1.000  O
  O41      1.0000 0.06417  0.87166  0.63907  Biso   1.000  O
  O42      1.0000 0.16375  0.32683  0.65022  Biso   1.000  O
  Ir14     1.0000 0.37980  0.54902  0.65715  Biso   1.000  Ir
  O43      1.0000 0.59586  0.77122  0.66407  Biso   1.000  O
  O44      1.0000 0.69541  0.22638  0.67523  Biso   1.000  O
  O45      1.0000 0.14069  0.68155  0.68639  Biso   1.000  O
  Ir15     1.0000 0.70244  0.90375  0.69331  Biso   1.000  Ir
  O46      1.0000 0.26420  0.12594  0.70023  Biso   1.000  O
  O47      1.0000 0.70945  0.58111  0.71139  Biso   1.000  O
  O48      1.0000 0.80903  0.03628  0.72255  Biso   1.000  O
  Ir16     1.0000 0.02508  0.25847  0.72947  Biso   1.000  Ir
  O49      1.0000 0.24113  0.48067  0.73639  Biso   1.000  O
  O50      1.0000 0.34068  0.93583  0.74755  Biso   1.000  O
  O51      1.0000 0.78597  0.39099  0.75871  Biso   1.000  O
  Ir17     1.0000 0.34771  0.61319  0.76563  Biso   1.000  Ir
  O52      1.0000 0.90947  0.83538  0.77255  Biso   1.000  O
  O53      1.0000 0.35472  0.29055  0.78371  Biso   1.000  O
  O54      1.0000 0.45430  0.74572  0.79487  Biso   1.000  O
  O55      1.0000 0.88641  0.19011  0.80871  Biso   1.000  O
  O56      1.0000 0.98596  0.64528  0.81987  Biso   1.000  O
