data_image0
_cell_length_a       5.1456
_cell_length_b       4.88305
_cell_length_c       56.2647
_cell_angle_alpha    90
_cell_angle_beta     90.2751
_cell_angle_gamma    118.326

_symmetry_space_group_name_H-M    "P 1"
_symmetry_int_tables_number       1

loop_
  _symmetry_equiv_pos_as_xyz
  'x, y, z'

loop_
  _atom_site_label
  _atom_site_occupancy
  _atom_site_fract_x
  _atom_site_fract_y
  _atom_site_fract_z
  _atom_site_thermal_displace_type
  _atom_site_B_iso_or_equiv
  _atom_site_type_symbol
  Ir1      1.0000 0.69224  0.34348  0.16622  Biso   1.000  Ir
  Ir2      1.0000 0.40653  0.70062  0.23765  Biso   1.000  Ir
  Ir3      1.0000 0.04939  0.02205  0.20194  Biso   1.000  Ir
  Ir4      1.0000 0.76367  0.37919  0.27337  Biso   1.000  Ir
  Ir5      1.0000 0.12082  0.05776  0.30908  Biso   1.000  Ir
  Ir6      1.0000 0.83510  0.41491  0.38051  Biso   1.000  Ir
  Ir7      1.0000 0.47796  0.73633  0.34480  Biso   1.000  Ir
  Ir8      1.0000 0.19224  0.09348  0.41622  Biso   1.000  Ir
  Ir9      1.0000 0.54939  0.77205  0.45194  Biso   1.000  Ir
  Ir10     1.0000 0.26367  0.12919  0.52337  Biso   1.000  Ir
  Ir11     1.0000 0.90653  0.45062  0.48765  Biso   1.000  Ir
  Ir12     1.0000 0.62082  0.80776  0.55908  Biso   1.000  Ir
  Ir13     1.0000 0.97796  0.48633  0.59480  Biso   1.000  Ir
  Ir14     1.0000 0.69224  0.84348  0.66622  Biso   1.000  Ir
  Ir15     1.0000 0.33510  0.16490  0.63051  Biso   1.000  Ir
  Ir16     1.0000 0.04939  0.52205  0.70194  Biso   1.000  Ir
  Ir17     1.0000 0.40653  0.20062  0.73765  Biso   1.000  Ir
  Ir18     1.0000 0.12082  0.55776  0.80908  Biso   1.000  Ir
  Ir19     1.0000 0.76367  0.87919  0.77337  Biso   1.000  Ir
  Ir20     1.0000 0.47796  0.23633  0.84480  Biso   1.000  Ir
  O1       1.0000 0.91490  0.12765  0.17306  Biso   1.000  O
  O2       1.0000 0.62919  0.48479  0.24449  Biso   1.000  O
  O3       1.0000 0.27204  0.46052  0.20878  Biso   1.000  O
  O4       1.0000 0.98633  0.81766  0.28020  Biso   1.000  O
  O5       1.0000 0.82673  0.58356  0.19510  Biso   1.000  O
  O6       1.0000 0.54101  0.94071  0.26653  Biso   1.000  O
  O7       1.0000 0.46959  0.55929  0.15939  Biso   1.000  O
  O8       1.0000 0.18388  0.91644  0.23082  Biso   1.000  O
  O9       1.0000 0.01367  0.65850  0.14837  Biso   1.000  O
  O10      1.0000 0.72796  0.01564  0.21980  Biso   1.000  O
  O11      1.0000 0.37082  0.02847  0.18408  Biso   1.000  O
  O12      1.0000 0.08510  0.38562  0.25551  Biso   1.000  O
  O13      1.0000 0.34348  0.84194  0.31592  Biso   1.000  O
  O14      1.0000 0.05776  0.19908  0.38735  Biso   1.000  O
  O15      1.0000 0.70061  0.17481  0.35163  Biso   1.000  O
  O16      1.0000 0.41490  0.53195  0.42306  Biso   1.000  O
  O17      1.0000 0.25530  0.29785  0.33796  Biso   1.000  O
  O18      1.0000 0.96958  0.65499  0.40939  Biso   1.000  O
  O19      1.0000 0.89816  0.27358  0.30225  Biso   1.000  O
  O20      1.0000 0.61245  0.63072  0.37367  Biso   1.000  O
  O21      1.0000 0.44224  0.37279  0.29122  Biso   1.000  O
  O22      1.0000 0.15653  0.72993  0.36265  Biso   1.000  O
  O23      1.0000 0.79939  0.74276  0.32694  Biso   1.000  O
  O24      1.0000 0.51367  0.09990  0.39837  Biso   1.000  O
  O25      1.0000 0.77205  0.55622  0.45877  Biso   1.000  O
  O26      1.0000 0.48633  0.91337  0.53020  Biso   1.000  O
  O27      1.0000 0.12918  0.88909  0.49449  Biso   1.000  O
  O28      1.0000 0.84347  0.24623  0.56592  Biso   1.000  O
  O29      1.0000 0.68387  0.01213  0.48082  Biso   1.000  O
  O30      1.0000 0.39816  0.36928  0.55225  Biso   1.000  O
  O31      1.0000 0.32673  0.98787  0.44510  Biso   1.000  O
  O32      1.0000 0.04102  0.34501  0.51653  Biso   1.000  O
  O33      1.0000 0.87082  0.08707  0.43408  Biso   1.000  O
  O34      1.0000 0.58510  0.44422  0.50551  Biso   1.000  O
  O35      1.0000 0.22796  0.45704  0.46980  Biso   1.000  O
  O36      1.0000 0.94224  0.81419  0.54122  Biso   1.000  O
  O37      1.0000 0.20062  0.27051  0.60163  Biso   1.000  O
  O38      1.0000 0.91490  0.62765  0.67306  Biso   1.000  O
  O39      1.0000 0.55776  0.60338  0.63735  Biso   1.000  O
  O40      1.0000 0.27204  0.96052  0.70878  Biso   1.000  O
  O41      1.0000 0.11244  0.72642  0.62368  Biso   1.000  O
  O42      1.0000 0.82673  0.08356  0.69510  Biso   1.000  O
  O43      1.0000 0.75530  0.70215  0.58796  Biso   1.000  O
  O44      1.0000 0.46959  0.05929  0.65939  Biso   1.000  O
  O45      1.0000 0.29939  0.80136  0.57694  Biso   1.000  O
  O46      1.0000 0.01367  0.15850  0.64837  Biso   1.000  O
  O47      1.0000 0.65653  0.17133  0.61265  Biso   1.000  O
  O48      1.0000 0.37082  0.52847  0.68408  Biso   1.000  O
  O49      1.0000 0.62919  0.98479  0.74449  Biso   1.000  O
  O50      1.0000 0.34348  0.34194  0.81592  Biso   1.000  O
  O51      1.0000 0.98633  0.31766  0.78020  Biso   1.000  O
  O52      1.0000 0.70061  0.67481  0.85163  Biso   1.000  O
  O53      1.0000 0.54101  0.44071  0.76653  Biso   1.000  O
  O54      1.0000 0.25530  0.79785  0.83796  Biso   1.000  O
  O55      1.0000 0.18388  0.41644  0.73082  Biso   1.000  O
  O56      1.0000 0.89816  0.77358  0.80225  Biso   1.000  O
  O57      1.0000 0.72796  0.51564  0.71980  Biso   1.000  O
  O58      1.0000 0.44224  0.87279  0.79122  Biso   1.000  O
  O59      1.0000 0.08510  0.88561  0.75551  Biso   1.000  O
  O60      1.0000 0.79939  0.24276  0.82694  Biso   1.000  O
