data_image0
_cell_length_a       3.1894
_cell_length_b       4.54
_cell_length_c       51.412
_cell_angle_alpha    90
_cell_angle_beta     90
_cell_angle_gamma    90

_symmetry_space_group_name_H-M    "P 1"
_symmetry_int_tables_number       1

loop_
  _symmetry_equiv_pos_as_xyz
  'x, y, z'

loop_
  _atom_site_label
  _atom_site_occupancy
  _atom_site_fract_x
  _atom_site_fract_y
  _atom_site_fract_z
  _atom_site_thermal_displace_type
  _atom_site_B_iso_or_equiv
  _atom_site_type_symbol
  O1       1.0000 0.00000  0.60000  0.17327  Biso   1.000  O
  O2       1.0000 0.50000  0.10000  0.18210  Biso   1.000  O
  Ir1      1.0000 0.00000  0.30000  0.19976  Biso   1.000  Ir
  O3       1.0000 0.50000  0.50000  0.21742  Biso   1.000  O
  O4       1.0000 0.00000  0.00000  0.22625  Biso   1.000  O
  Ir2      1.0000 0.50000  0.80000  0.24391  Biso   1.000  Ir
  O5       1.0000 0.00000  0.60000  0.26157  Biso   1.000  O
  O6       1.0000 0.50000  0.10000  0.27040  Biso   1.000  O
  Ir3      1.0000 0.00000  0.30000  0.28807  Biso   1.000  Ir
  O7       1.0000 0.50000  0.50000  0.30573  Biso   1.000  O
  O8       1.0000 0.00000  0.00000  0.31456  Biso   1.000  O
  Ir4      1.0000 0.50000  0.80000  0.33222  Biso   1.000  Ir
  O9       1.0000 0.00000  0.60000  0.34988  Biso   1.000  O
  O10      1.0000 0.50000  0.10000  0.35871  Biso   1.000  O
  Ir5      1.0000 0.00000  0.30000  0.37637  Biso   1.000  Ir
  O11      1.0000 0.50000  0.50000  0.39403  Biso   1.000  O
  O12      1.0000 0.00000  0.00000  0.40286  Biso   1.000  O
  Ir6      1.0000 0.50000  0.80000  0.42052  Biso   1.000  Ir
  O13      1.0000 0.00000  0.60000  0.43819  Biso   1.000  O
  O14      1.0000 0.50000  0.10000  0.44702  Biso   1.000  O
  Ir7      1.0000 0.00000  0.30000  0.46468  Biso   1.000  Ir
  O15      1.0000 0.50000  0.50000  0.48234  Biso   1.000  O
  O16      1.0000 0.00000  0.00000  0.49117  Biso   1.000  O
  Ir8      1.0000 0.50000  0.80000  0.50883  Biso   1.000  Ir
  O17      1.0000 0.00000  0.60000  0.52649  Biso   1.000  O
  O18      1.0000 0.50000  0.10000  0.53532  Biso   1.000  O
  Ir9      1.0000 0.00000  0.30000  0.55298  Biso   1.000  Ir
  O19      1.0000 0.50000  0.50000  0.57064  Biso   1.000  O
  O20      1.0000 0.00000  0.00000  0.57948  Biso   1.000  O
  Ir10     1.0000 0.50000  0.80000  0.59714  Biso   1.000  Ir
  O21      1.0000 0.00000  0.60000  0.61480  Biso   1.000  O
  O22      1.0000 0.50000  0.10000  0.62363  Biso   1.000  O
  Ir11     1.0000 0.00000  0.30000  0.64129  Biso   1.000  Ir
  O23      1.0000 0.50000  0.50000  0.65895  Biso   1.000  O
  O24      1.0000 0.00000  0.00000  0.66778  Biso   1.000  O
  Ir12     1.0000 0.50000  0.80000  0.68544  Biso   1.000  Ir
  O25      1.0000 0.00000  0.60000  0.70310  Biso   1.000  O
  O26      1.0000 0.50000  0.10000  0.71193  Biso   1.000  O
  Ir13     1.0000 0.00000  0.30000  0.72960  Biso   1.000  Ir
  O27      1.0000 0.50000  0.50000  0.74726  Biso   1.000  O
  O28      1.0000 0.00000  0.00000  0.75609  Biso   1.000  O
