data_image0
_cell_length_a       4.88305
_cell_length_b       5.1456
_cell_length_c       60.7664
_cell_angle_alpha    90
_cell_angle_beta     90
_cell_angle_gamma    90

loop_
  _atom_site_label
  _atom_site_occupancy
  _atom_site_fract_x
  _atom_site_fract_y
  _atom_site_fract_z
  _atom_site_thermal_displace_type
  _atom_site_B_iso_or_equiv
  _atom_site_type_symbol
  O1       1.0000 0.98147  0.30205  0.13165  Biso   1.000  O
  O2       1.0000 0.82717  0.80206  0.13165  Biso   1.000  O
  Ir1      1.0000 0.65431  0.12154  0.14064  Biso   1.000  Ir
  Ir2      1.0000 0.15431  0.62154  0.14064  Biso   1.000  Ir
  O3       1.0000 0.32717  0.94101  0.14962  Biso   1.000  O
  O4       1.0000 0.48147  0.44102  0.14962  Biso   1.000  O
  O5       1.0000 0.80860  0.09667  0.16974  Biso   1.000  O
  O6       1.0000 0.00000  0.59667  0.16974  Biso   1.000  O
  O7       1.0000 0.48147  0.75233  0.18987  Biso   1.000  O
  O8       1.0000 0.32717  0.25234  0.18987  Biso   1.000  O
  Ir3      1.0000 0.65431  0.07181  0.19885  Biso   1.000  Ir
  Ir4      1.0000 0.15431  0.57181  0.19885  Biso   1.000  Ir
  O9       1.0000 0.82717  0.39129  0.20783  Biso   1.000  O
  O10      1.0000 0.98147  0.89129  0.20784  Biso   1.000  O
  O11      1.0000 0.50000  0.04695  0.22796  Biso   1.000  O
  O12      1.0000 0.30860  0.54695  0.22796  Biso   1.000  O
  O13      1.0000 0.98147  0.20261  0.24809  Biso   1.000  O
  O14      1.0000 0.82717  0.70262  0.24809  Biso   1.000  O
  Ir5      1.0000 0.65431  0.02209  0.25707  Biso   1.000  Ir
  Ir6      1.0000 0.15431  0.52209  0.25707  Biso   1.000  Ir
  O15      1.0000 0.32716  0.84156  0.26605  Biso   1.000  O
  O16      1.0000 0.48147  0.34157  0.26605  Biso   1.000  O
  O17      1.0000 0.00000  0.49723  0.28618  Biso   1.000  O
  O18      1.0000 0.80860  0.99723  0.28618  Biso   1.000  O
  O19      1.0000 0.48147  0.65288  0.30630  Biso   1.000  O
  O20      1.0000 0.32717  0.15289  0.30630  Biso   1.000  O
  Ir7      1.0000 0.15431  0.47237  0.31529  Biso   1.000  Ir
  Ir8      1.0000 0.65431  0.97237  0.31529  Biso   1.000  Ir
  O21      1.0000 0.82717  0.29184  0.32427  Biso   1.000  O
  O22      1.0000 0.98147  0.79185  0.32427  Biso   1.000  O
  O23      1.0000 0.30860  0.44751  0.34439  Biso   1.000  O
  O24      1.0000 0.50000  0.94751  0.34439  Biso   1.000  O
  O25      1.0000 0.98147  0.10316  0.36452  Biso   1.000  O
  O26      1.0000 0.82717  0.60317  0.36452  Biso   1.000  O
  Ir9      1.0000 0.15431  0.42264  0.37350  Biso   1.000  Ir
  Ir10     1.0000 0.65431  0.92264  0.37350  Biso   1.000  Ir
  O27      1.0000 0.32716  0.74212  0.38249  Biso   1.000  O
  O28      1.0000 0.48147  0.24213  0.38249  Biso   1.000  O
  O29      1.0000 0.00000  0.39778  0.40261  Biso   1.000  O
  O30      1.0000 0.80860  0.89778  0.40261  Biso   1.000  O
  O31      1.0000 0.48147  0.55344  0.42274  Biso   1.000  O
  O32      1.0000 0.32716  0.05345  0.42274  Biso   1.000  O
  Ir11     1.0000 0.15431  0.37292  0.43172  Biso   1.000  Ir
  Ir12     1.0000 0.65431  0.87292  0.43172  Biso   1.000  Ir
  O33      1.0000 0.82716  0.19239  0.44070  Biso   1.000  O
  O34      1.0000 0.98147  0.69240  0.44070  Biso   1.000  O
  O35      1.0000 0.30860  0.34806  0.46083  Biso   1.000  O
  O36      1.0000 0.50000  0.84806  0.46083  Biso   1.000  O
  O37      1.0000 0.98147  0.00372  0.48095  Biso   1.000  O
  O38      1.0000 0.82717  0.50373  0.48096  Biso   1.000  O
  Ir13     1.0000 0.15431  0.32320  0.48994  Biso   1.000  Ir
  Ir14     1.0000 0.65431  0.82320  0.48994  Biso   1.000  Ir
  O39      1.0000 0.32716  0.64267  0.49892  Biso   1.000  O
  O40      1.0000 0.48147  0.14268  0.49892  Biso   1.000  O
  O41      1.0000 0.00000  0.29834  0.51905  Biso   1.000  O
  O42      1.0000 0.80860  0.79834  0.51905  Biso   1.000  O
  O43      1.0000 0.48146  0.45399  0.53917  Biso   1.000  O
  O44      1.0000 0.32717  0.95400  0.53917  Biso   1.000  O
  Ir15     1.0000 0.15431  0.27348  0.54815  Biso   1.000  Ir
  Ir16     1.0000 0.65431  0.77348  0.54815  Biso   1.000  Ir
  O45      1.0000 0.82716  0.09295  0.55714  Biso   1.000  O
  O46      1.0000 0.98147  0.59296  0.55714  Biso   1.000  O
  O47      1.0000 0.30860  0.24861  0.57726  Biso   1.000  O
  O48      1.0000 0.50000  0.74861  0.57726  Biso   1.000  O
  O49      1.0000 0.98147  0.90427  0.59739  Biso   1.000  O
  O50      1.0000 0.82716  0.40428  0.59739  Biso   1.000  O
  Ir17     1.0000 0.15431  0.22375  0.60637  Biso   1.000  Ir
  Ir18     1.0000 0.65431  0.72375  0.60637  Biso   1.000  Ir
  O51      1.0000 0.32717  0.54323  0.61535  Biso   1.000  O
  O52      1.0000 0.48146  0.04324  0.61536  Biso   1.000  O
  O53      1.0000 0.00000  0.19889  0.63548  Biso   1.000  O
  O54      1.0000 0.80860  0.69889  0.63548  Biso   1.000  O
  O55      1.0000 0.48147  0.35455  0.65561  Biso   1.000  O
  O56      1.0000 0.32717  0.85456  0.65561  Biso   1.000  O
  Ir19     1.0000 0.15431  0.17403  0.66459  Biso   1.000  Ir
  Ir20     1.0000 0.65431  0.67403  0.66459  Biso   1.000  Ir
  O57      1.0000 0.82717  0.99350  0.67357  Biso   1.000  O
  O58      1.0000 0.98147  0.49351  0.67357  Biso   1.000  O
  O59      1.0000 0.30860  0.14917  0.69370  Biso   1.000  O
  O60      1.0000 0.50000  0.64917  0.69370  Biso   1.000  O
  O61      1.0000 0.98147  0.80482  0.71382  Biso   1.000  O
  O62      1.0000 0.82717  0.30483  0.71382  Biso   1.000  O
  Ir21     1.0000 0.15431  0.12431  0.72281  Biso   1.000  Ir
  Ir22     1.0000 0.65431  0.62431  0.72281  Biso   1.000  Ir
  O63      1.0000 0.32716  0.44378  0.73179  Biso   1.000  O
  O64      1.0000 0.48147  0.94379  0.73179  Biso   1.000  O
  O65      1.0000 0.00000  0.09945  0.75191  Biso   1.000  O
  O66      1.0000 0.80860  0.59945  0.75191  Biso   1.000  O
  O67      1.0000 0.48147  0.25510  0.77204  Biso   1.000  O
  O68      1.0000 0.32717  0.75511  0.77204  Biso   1.000  O
  Ir23     1.0000 0.15431  0.07458  0.78102  Biso   1.000  Ir
  Ir24     1.0000 0.65431  0.57458  0.78102  Biso   1.000  Ir
  O69      1.0000 0.82716  0.89406  0.79000  Biso   1.000  O
  O70      1.0000 0.98147  0.39407  0.79001  Biso   1.000  O
  O71      1.0000 0.30860  0.04972  0.81013  Biso   1.000  O
  O72      1.0000 0.50000  0.54972  0.81013  Biso   1.000  O
  O73      1.0000 0.98147  0.70538  0.83026  Biso   1.000  O
  O74      1.0000 0.82717  0.20539  0.83026  Biso   1.000  O
  Ir25     1.0000 0.15431  0.02486  0.83924  Biso   1.000  Ir
  Ir26     1.0000 0.65431  0.52486  0.83924  Biso   1.000  Ir
  O75      1.0000 0.32716  0.34433  0.84822  Biso   1.000  O
  O76      1.0000 0.48146  0.84434  0.84822  Biso   1.000  O
  O77      1.0000 0.00000  0.00000  0.86835  Biso   1.000  O
  O78      1.0000 0.80860  0.50000  0.86835  Biso   1.000  O
