data_image0
_cell_length_a       4.88305
_cell_length_b       4.88305
_cell_length_c       38.7409
_cell_angle_alpha    90
_cell_angle_beta     90
_cell_angle_gamma    60

_symmetry_space_group_name_H-M    "P 1"
_symmetry_int_tables_number       1

loop_
  _symmetry_equiv_pos_as_xyz
  'x, y, z'

loop_
  _atom_site_label
  _atom_site_occupancy
  _atom_site_fract_x
  _atom_site_fract_y
  _atom_site_fract_z
  _atom_site_thermal_displace_type
  _atom_site_B_iso_or_equiv
  _atom_site_type_symbol
  Ir1      1.0000 0.66667  0.66667  0.37500  Biso   1.000  Ir
  Ir2      1.0000 0.00000  0.00000  0.26389  Biso   1.000  Ir
  Ir3      1.0000 0.33333  0.33333  0.48611  Biso   1.000  Ir
  Ir4      1.0000 0.66667  0.66667  0.20833  Biso   1.000  Ir
  Ir5      1.0000 0.00000  1.00000  0.43056  Biso   1.000  Ir
  Ir6      1.0000 0.33333  0.33333  0.31944  Biso   1.000  Ir
  Ir7      1.0000 0.66667  0.66667  0.70833  Biso   1.000  Ir
  Ir8      1.0000 1.00000  0.00000  0.59722  Biso   1.000  Ir
  Ir9      1.0000 0.33333  0.33333  0.81944  Biso   1.000  Ir
  Ir10     1.0000 0.66667  0.66667  0.54167  Biso   1.000  Ir
  Ir11     1.0000 0.00000  1.00000  0.76389  Biso   1.000  Ir
  Ir12     1.0000 0.33333  0.33333  0.65278  Biso   1.000  Ir
  O1       1.0000 0.98764  0.33333  0.40278  Biso   1.000  O
  O2       1.0000 0.32098  0.66667  0.29167  Biso   1.000  O
  O3       1.0000 0.65431  0.00000  0.18056  Biso   1.000  O
  O4       1.0000 0.66667  0.32096  0.45833  Biso   1.000  O
  O5       1.0000 0.00000  0.65429  0.34722  Biso   1.000  O
  O6       1.0000 0.33333  0.98762  0.23611  Biso   1.000  O
  O7       1.0000 0.33333  0.67902  0.40278  Biso   1.000  O
  O8       1.0000 0.66667  0.01236  0.29167  Biso   1.000  O
  O9       1.0000 0.00000  0.34569  0.18056  Biso   1.000  O
  O10      1.0000 0.01238  0.66667  0.45833  Biso   1.000  O
  O11      1.0000 0.34571  0.00000  0.34722  Biso   1.000  O
  O12      1.0000 0.67904  0.33333  0.23611  Biso   1.000  O
  O13      1.0000 0.67902  0.98764  0.40278  Biso   1.000  O
  O14      1.0000 0.01236  0.32098  0.29167  Biso   1.000  O
  O15      1.0000 0.34569  0.65431  0.18056  Biso   1.000  O
  O16      1.0000 0.32096  0.01238  0.45833  Biso   1.000  O
  O17      1.0000 0.65429  0.34571  0.34722  Biso   1.000  O
  O18      1.0000 0.98762  0.67904  0.23611  Biso   1.000  O
  O19      1.0000 0.98764  0.33333  0.73611  Biso   1.000  O
  O20      1.0000 0.32098  0.66667  0.62500  Biso   1.000  O
  O21      1.0000 0.65431  0.00000  0.51389  Biso   1.000  O
  O22      1.0000 0.66667  0.32096  0.79167  Biso   1.000  O
  O23      1.0000 1.00000  0.65429  0.68056  Biso   1.000  O
  O24      1.0000 0.33333  0.98762  0.56944  Biso   1.000  O
  O25      1.0000 0.33333  0.67902  0.73611  Biso   1.000  O
  O26      1.0000 0.66667  0.01236  0.62500  Biso   1.000  O
  O27      1.0000 0.00000  0.34569  0.51389  Biso   1.000  O
  O28      1.0000 0.01238  0.66667  0.79167  Biso   1.000  O
  O29      1.0000 0.34571  0.00000  0.68056  Biso   1.000  O
  O30      1.0000 0.67904  0.33333  0.56944  Biso   1.000  O
  O31      1.0000 0.67902  0.98764  0.73611  Biso   1.000  O
  O32      1.0000 0.01236  0.32098  0.62500  Biso   1.000  O
  O33      1.0000 0.34569  0.65431  0.51389  Biso   1.000  O
  O34      1.0000 0.32096  0.01238  0.79167  Biso   1.000  O
  O35      1.0000 0.65429  0.34571  0.68056  Biso   1.000  O
  O36      1.0000 0.98762  0.67904  0.56944  Biso   1.000  O
