data_image0
_cell_length_a       4.88305
_cell_length_b       4.88305
_cell_length_c       38.6747
_cell_angle_alpha    90
_cell_angle_beta     90
_cell_angle_gamma    60

_symmetry_space_group_name_H-M    "P 1"
_symmetry_int_tables_number       1

loop_
  _symmetry_equiv_pos_as_xyz
  'x, y, z'

loop_
  _atom_site_label
  _atom_site_occupancy
  _atom_site_fract_x
  _atom_site_fract_y
  _atom_site_fract_z
  _atom_site_thermal_displace_type
  _atom_site_B_iso_or_equiv
  _atom_site_type_symbol
  O1       1.0000 0.69140  0.00000  0.19393  Biso   1.000  O
  O2       1.0000 0.99998  0.34571  0.19393  Biso   1.000  O
  O3       1.0000 0.34569  0.65429  0.19393  Biso   1.000  O
  Ir1      1.0000 0.01236  0.66667  0.22175  Biso   1.000  Ir
  O4       1.0000 0.33333  0.33333  0.24957  Biso   1.000  O
  O5       1.0000 0.67902  0.67902  0.24957  Biso   1.000  O
  O6       1.0000 0.02471  0.98764  0.24957  Biso   1.000  O
  Ir2      1.0000 0.34569  0.00000  0.27740  Biso   1.000  Ir
  O7       1.0000 0.66665  0.01238  0.30522  Biso   1.000  O
  O8       1.0000 0.01236  0.32096  0.30522  Biso   1.000  O
  O9       1.0000 0.35807  0.66667  0.30522  Biso   1.000  O
  Ir3      1.0000 0.67902  0.33333  0.33305  Biso   1.000  Ir
  O10      1.0000 0.00000  0.00000  0.36087  Biso   1.000  O
  O11      1.0000 0.34569  0.34569  0.36087  Biso   1.000  O
  O12      1.0000 0.69138  0.65431  0.36087  Biso   1.000  O
  Ir4      1.0000 0.01236  0.66667  0.38870  Biso   1.000  Ir
  O13      1.0000 0.02473  0.33333  0.41652  Biso   1.000  O
  O14      1.0000 0.33331  0.67904  0.41652  Biso   1.000  O
  O15      1.0000 0.67902  0.98762  0.41652  Biso   1.000  O
  Ir5      1.0000 0.34569  0.00000  0.44434  Biso   1.000  Ir
  O16      1.0000 0.01236  0.01236  0.47217  Biso   1.000  O
  O17      1.0000 0.35805  0.32098  0.47217  Biso   1.000  O
  O18      1.0000 0.66667  0.66667  0.47217  Biso   1.000  O
  Ir6      1.0000 0.67902  0.33333  0.49999  Biso   1.000  Ir
  O19      1.0000 0.69140  0.00000  0.52782  Biso   1.000  O
  O20      1.0000 0.99998  0.34571  0.52782  Biso   1.000  O
  O21      1.0000 0.34569  0.65429  0.52782  Biso   1.000  O
  Ir7      1.0000 0.01236  0.66667  0.55564  Biso   1.000  Ir
  O22      1.0000 0.33333  0.33333  0.58348  Biso   1.000  O
  O23      1.0000 0.67902  0.67902  0.58348  Biso   1.000  O
  O24      1.0000 0.02471  0.98764  0.58348  Biso   1.000  O
  Ir8      1.0000 0.34569  0.00000  0.61130  Biso   1.000  Ir
  O25      1.0000 0.66665  0.01238  0.63913  Biso   1.000  O
  O26      1.0000 0.01236  0.32096  0.63913  Biso   1.000  O
  O27      1.0000 0.35807  0.66667  0.63913  Biso   1.000  O
  Ir9      1.0000 0.67902  0.33333  0.66695  Biso   1.000  Ir
  O28      1.0000 0.00000  0.00000  0.69478  Biso   1.000  O
  O29      1.0000 0.34569  0.34569  0.69478  Biso   1.000  O
  O30      1.0000 0.69138  0.65431  0.69478  Biso   1.000  O
  Ir10     1.0000 0.01236  0.66667  0.72260  Biso   1.000  Ir
  O31      1.0000 0.02473  0.33333  0.75043  Biso   1.000  O
  O32      1.0000 0.67902  0.98762  0.75043  Biso   1.000  O
  O33      1.0000 0.33331  0.67904  0.75043  Biso   1.000  O
  Ir11     1.0000 0.34569  0.00000  0.77825  Biso   1.000  Ir
  O34      1.0000 0.01236  0.01236  0.80607  Biso   1.000  O
  O35      1.0000 0.35805  0.32098  0.80607  Biso   1.000  O
  O36      1.0000 0.66667  0.66667  0.80607  Biso   1.000  O
  H1       1.0000 0.01236  0.88949  0.82417  Biso   1.000  H
  H2       1.0000 0.35805  0.21858  0.82417  Biso   1.000  H
  H3       1.0000 0.66667  0.56427  0.82676  Biso   1.000  H
  H4       1.0000 0.34569  0.77716  0.17583  Biso   1.000  H
  H5       1.0000 0.99998  0.50954  0.17583  Biso   1.000  H
  H6       1.0000 0.69140  0.14335  0.17324  Biso   1.000  H
