data_image0
_cell_length_a       4.69635
_cell_length_b       8.72335
_cell_length_c       41.183
_cell_angle_alpha    90
_cell_angle_beta     90
_cell_angle_gamma    90

_symmetry_space_group_name_H-M    "P 1"
_symmetry_int_tables_number       1

loop_
  _symmetry_equiv_pos_as_xyz
  'x, y, z'

loop_
  _atom_site_label
  _atom_site_occupancy
  _atom_site_fract_x
  _atom_site_fract_y
  _atom_site_fract_z
  _atom_site_thermal_displace_type
  _atom_site_B_iso_or_equiv
  _atom_site_type_symbol
  O1       1.0000 0.46794  0.17526  0.18211  Biso   1.000  O
  O2       1.0000 0.46794  0.82474  0.18211  Biso   1.000  O
  O3       1.0000 0.96794  0.32474  0.19069  Biso   1.000  O
  O4       1.0000 0.96794  0.67526  0.19069  Biso   1.000  O
  O5       1.0000 0.99999  0.00000  0.19434  Biso   1.000  O
  Ir1      1.0000 0.18033  0.17534  0.21491  Biso   1.000  Ir
  Ir2      1.0000 0.18033  0.82466  0.21491  Biso   1.000  Ir
  O6       1.0000 0.36068  0.00000  0.23547  Biso   1.000  O
  O7       1.0000 0.39273  0.32474  0.23913  Biso   1.000  O
  O8       1.0000 0.39273  0.67526  0.23913  Biso   1.000  O
  O9       1.0000 0.89272  0.17526  0.24771  Biso   1.000  O
  O10      1.0000 0.89272  0.82474  0.24771  Biso   1.000  O
  O11      1.0000 0.86068  0.50000  0.25137  Biso   1.000  O
  Ir3      1.0000 0.68033  0.32466  0.27193  Biso   1.000  Ir
  Ir4      1.0000 0.68033  0.67535  0.27193  Biso   1.000  Ir
  O12      1.0000 0.49998  0.50000  0.29250  Biso   1.000  O
  O13      1.0000 0.46794  0.17526  0.29615  Biso   1.000  O
  O14      1.0000 0.46794  0.82474  0.29615  Biso   1.000  O
  O15      1.0000 0.96794  0.32474  0.30473  Biso   1.000  O
  O16      1.0000 0.96794  0.67526  0.30473  Biso   1.000  O
  O17      1.0000 0.99999  0.00000  0.30838  Biso   1.000  O
  Ir5      1.0000 0.18033  0.17534  0.32894  Biso   1.000  Ir
  Ir6      1.0000 0.18033  0.82466  0.32894  Biso   1.000  Ir
  O18      1.0000 0.36068  0.00000  0.34951  Biso   1.000  O
  O19      1.0000 0.39273  0.32474  0.35316  Biso   1.000  O
  O20      1.0000 0.39273  0.67526  0.35316  Biso   1.000  O
  O21      1.0000 0.89272  0.17526  0.36174  Biso   1.000  O
  O22      1.0000 0.89272  0.82474  0.36174  Biso   1.000  O
  O23      1.0000 0.86068  0.50000  0.36540  Biso   1.000  O
  Ir7      1.0000 0.68033  0.32466  0.38597  Biso   1.000  Ir
  Ir8      1.0000 0.68033  0.67535  0.38597  Biso   1.000  Ir
  O24      1.0000 0.49998  0.50000  0.40654  Biso   1.000  O
  O25      1.0000 0.46794  0.17526  0.41019  Biso   1.000  O
  O26      1.0000 0.46794  0.82474  0.41019  Biso   1.000  O
  O27      1.0000 0.96794  0.32474  0.41876  Biso   1.000  O
  O28      1.0000 0.96794  0.67526  0.41876  Biso   1.000  O
  O29      1.0000 0.99999  0.00000  0.42242  Biso   1.000  O
  Ir9      1.0000 0.18033  0.17534  0.44298  Biso   1.000  Ir
  Ir10     1.0000 0.18033  0.82466  0.44298  Biso   1.000  Ir
  O30      1.0000 0.36068  0.00000  0.46355  Biso   1.000  O
  O31      1.0000 0.39273  0.32474  0.46720  Biso   1.000  O
  O32      1.0000 0.39273  0.67526  0.46720  Biso   1.000  O
  O33      1.0000 0.89272  0.17526  0.47577  Biso   1.000  O
  O34      1.0000 0.89272  0.82474  0.47577  Biso   1.000  O
  O35      1.0000 0.86068  0.50000  0.47943  Biso   1.000  O
  Ir11     1.0000 0.68033  0.32466  0.49999  Biso   1.000  Ir
  Ir12     1.0000 0.68033  0.67535  0.49999  Biso   1.000  Ir
  O36      1.0000 0.49998  0.50000  0.52057  Biso   1.000  O
  O37      1.0000 0.46794  0.17526  0.52423  Biso   1.000  O
  O38      1.0000 0.46794  0.82474  0.52423  Biso   1.000  O
  O39      1.0000 0.96794  0.32474  0.53280  Biso   1.000  O
  O40      1.0000 0.96794  0.67526  0.53280  Biso   1.000  O
  O41      1.0000 0.99999  0.00000  0.53645  Biso   1.000  O
  Ir13     1.0000 0.18033  0.17534  0.55702  Biso   1.000  Ir
  Ir14     1.0000 0.18033  0.82466  0.55702  Biso   1.000  Ir
  O42      1.0000 0.36068  0.00000  0.57758  Biso   1.000  O
  O43      1.0000 0.39273  0.32474  0.58124  Biso   1.000  O
  O44      1.0000 0.39273  0.67526  0.58124  Biso   1.000  O
  O45      1.0000 0.89272  0.17526  0.58981  Biso   1.000  O
  O46      1.0000 0.89272  0.82474  0.58981  Biso   1.000  O
  O47      1.0000 0.86068  0.50000  0.59346  Biso   1.000  O
  Ir15     1.0000 0.68033  0.32466  0.61403  Biso   1.000  Ir
  Ir16     1.0000 0.68033  0.67535  0.61403  Biso   1.000  Ir
  O48      1.0000 0.49998  0.50000  0.63460  Biso   1.000  O
  O49      1.0000 0.46794  0.17526  0.63826  Biso   1.000  O
  O50      1.0000 0.46794  0.82474  0.63826  Biso   1.000  O
  O51      1.0000 0.96794  0.32474  0.64684  Biso   1.000  O
  O52      1.0000 0.96794  0.67526  0.64684  Biso   1.000  O
  O53      1.0000 0.99999  0.00000  0.65049  Biso   1.000  O
  Ir17     1.0000 0.18034  0.17534  0.67106  Biso   1.000  Ir
  Ir18     1.0000 0.18034  0.82466  0.67106  Biso   1.000  Ir
  O54      1.0000 0.36069  0.00000  0.69162  Biso   1.000  O
  O55      1.0000 0.39274  0.32474  0.69527  Biso   1.000  O
  O56      1.0000 0.39274  0.67526  0.69527  Biso   1.000  O
  O57      1.0000 0.89273  0.17526  0.70385  Biso   1.000  O
  O58      1.0000 0.89273  0.82474  0.70385  Biso   1.000  O
  O59      1.0000 0.86069  0.50000  0.70750  Biso   1.000  O
  Ir19     1.0000 0.68034  0.32466  0.72807  Biso   1.000  Ir
  Ir20     1.0000 0.68034  0.67535  0.72807  Biso   1.000  Ir
  O60      1.0000 0.49999  0.50000  0.74863  Biso   1.000  O
  O61      1.0000 0.46795  0.17526  0.75229  Biso   1.000  O
  O62      1.0000 0.46795  0.82474  0.75229  Biso   1.000  O
  O63      1.0000 0.96795  0.32474  0.76087  Biso   1.000  O
  O64      1.0000 0.96795  0.67526  0.76087  Biso   1.000  O
  O65      1.0000 0.00000  0.00000  0.76453  Biso   1.000  O
  Ir21     1.0000 0.18034  0.17534  0.78509  Biso   1.000  Ir
  Ir22     1.0000 0.18034  0.82466  0.78509  Biso   1.000  Ir
  O66      1.0000 0.36069  0.00000  0.80566  Biso   1.000  O
  O67      1.0000 0.39274  0.32474  0.80931  Biso   1.000  O
  O68      1.0000 0.39274  0.67526  0.80931  Biso   1.000  O
  O69      1.0000 0.89273  0.17526  0.81789  Biso   1.000  O
  O70      1.0000 0.89273  0.82474  0.81789  Biso   1.000  O
  H1       1.0000 0.89273  0.26697  0.83003  Biso   1.000  H
  H2       1.0000 0.89273  0.92791  0.82760  Biso   1.000  H
  H3       1.0000 0.46794  0.09502  0.16511  Biso   1.000  H
  H4       1.0000 0.46794  0.73303  0.16754  Biso   1.000  H
