data_image0
_cell_length_a       7.09375
_cell_length_b       8.45769
_cell_length_c       34.1727
_cell_angle_alpha    82.8915
_cell_angle_beta     86.2633
_cell_angle_gamma    66.5828

_symmetry_space_group_name_H-M    "P 1"
_symmetry_int_tables_number       1

loop_
  _symmetry_equiv_pos_as_xyz
  'x, y, z'

loop_
  _atom_site_label
  _atom_site_occupancy
  _atom_site_fract_x
  _atom_site_fract_y
  _atom_site_fract_z
  _atom_site_thermal_displace_type
  _atom_site_B_iso_or_equiv
  _atom_site_type_symbol
  Ir1      1.0000 0.66908  0.14021  0.76191  Biso   1.000  Ir
  Ir2      1.0000 0.95480  0.56878  0.71429  Biso   1.000  Ir
  Ir3      1.0000 0.24051  0.99735  0.66667  Biso   1.000  Ir
  Ir4      1.0000 0.52623  0.42592  0.61905  Biso   1.000  Ir
  Ir5      1.0000 0.81194  0.85450  0.57143  Biso   1.000  Ir
  Ir6      1.0000 0.09765  0.28307  0.52381  Biso   1.000  Ir
  Ir7      1.0000 0.38337  0.71164  0.80952  Biso   1.000  Ir
  Ir8      1.0000 0.02623  0.42592  0.61905  Biso   1.000  Ir
  Ir9      1.0000 0.31194  0.85450  0.57143  Biso   1.000  Ir
  Ir10     1.0000 0.59765  0.28307  0.52381  Biso   1.000  Ir
  Ir11     1.0000 0.88337  0.71164  0.80952  Biso   1.000  Ir
  Ir12     1.0000 0.16908  0.14021  0.76191  Biso   1.000  Ir
  Ir13     1.0000 0.45480  0.56878  0.71429  Biso   1.000  Ir
  Ir14     1.0000 0.74051  0.99735  0.66667  Biso   1.000  Ir
  Ir15     1.0000 0.66908  0.14021  0.42857  Biso   1.000  Ir
  Ir16     1.0000 0.95480  0.56878  0.38095  Biso   1.000  Ir
  Ir17     1.0000 0.24051  0.99735  0.33333  Biso   1.000  Ir
  Ir18     1.0000 0.52623  0.42592  0.28572  Biso   1.000  Ir
  Ir19     1.0000 0.81194  0.85450  0.23810  Biso   1.000  Ir
  Ir20     1.0000 0.09765  0.28307  0.19048  Biso   1.000  Ir
  Ir21     1.0000 0.38337  0.71164  0.47619  Biso   1.000  Ir
  Ir22     1.0000 0.02623  0.42592  0.28572  Biso   1.000  Ir
  Ir23     1.0000 0.31194  0.85450  0.23810  Biso   1.000  Ir
  Ir24     1.0000 0.59765  0.28307  0.19048  Biso   1.000  Ir
  Ir25     1.0000 0.88337  0.71164  0.47619  Biso   1.000  Ir
  Ir26     1.0000 0.16908  0.14021  0.42857  Biso   1.000  Ir
  Ir27     1.0000 0.45480  0.56878  0.38095  Biso   1.000  Ir
  Ir28     1.0000 0.74051  0.99735  0.33333  Biso   1.000  Ir
  O1       1.0000 0.66071  0.00265  0.72163  Biso   1.000  O
  O2       1.0000 0.94642  0.43122  0.67402  Biso   1.000  O
  O3       1.0000 0.23214  0.85979  0.62640  Biso   1.000  O
  O4       1.0000 0.51785  0.28836  0.57878  Biso   1.000  O
  O5       1.0000 0.80357  0.71693  0.53116  Biso   1.000  O
  O6       1.0000 0.08928  0.14551  0.81687  Biso   1.000  O
  O7       1.0000 0.37499  0.57408  0.76925  Biso   1.000  O
  O8       1.0000 0.54520  0.23368  0.65755  Biso   1.000  O
  O9       1.0000 0.83092  0.66225  0.60993  Biso   1.000  O
  O10      1.0000 0.11663  0.09082  0.56231  Biso   1.000  O
  O11      1.0000 0.40235  0.51939  0.51470  Biso   1.000  O
  O12      1.0000 0.68806  0.94797  0.80041  Biso   1.000  O
  O13      1.0000 0.97377  0.37654  0.75279  Biso   1.000  O
  O14      1.0000 0.25949  0.80511  0.70517  Biso   1.000  O
  O15      1.0000 0.65012  0.33245  0.72340  Biso   1.000  O
  O16      1.0000 0.93583  0.76102  0.67578  Biso   1.000  O
  O17      1.0000 0.22155  0.18959  0.62816  Biso   1.000  O
  O18      1.0000 0.50726  0.61816  0.58054  Biso   1.000  O
  O19      1.0000 0.79297  0.04674  0.53292  Biso   1.000  O
  O20      1.0000 0.07869  0.47531  0.81864  Biso   1.000  O
  O21      1.0000 0.36440  0.90388  0.77102  Biso   1.000  O
  O22      1.0000 0.24888  0.13490  0.70694  Biso   1.000  O
  O23      1.0000 0.53459  0.56348  0.65932  Biso   1.000  O
  O24      1.0000 0.82031  0.99205  0.61170  Biso   1.000  O
  O25      1.0000 0.10602  0.42062  0.56408  Biso   1.000  O
  O26      1.0000 0.39174  0.84919  0.51646  Biso   1.000  O
  O27      1.0000 0.67745  0.27776  0.80218  Biso   1.000  O
  O28      1.0000 0.96317  0.70633  0.75456  Biso   1.000  O
  O29      1.0000 0.37499  0.22839  0.76925  Biso   1.000  O
  O30      1.0000 0.66071  0.65696  0.72163  Biso   1.000  O
  O31      1.0000 0.94642  0.08553  0.67402  Biso   1.000  O
  O32      1.0000 0.23214  0.51410  0.62640  Biso   1.000  O
  O33      1.0000 0.51785  0.94267  0.57878  Biso   1.000  O
  O34      1.0000 0.80357  0.37124  0.53116  Biso   1.000  O
  O35      1.0000 0.08928  0.79982  0.81687  Biso   1.000  O
  O36      1.0000 0.24888  0.48062  0.70694  Biso   1.000  O
  O37      1.0000 0.53459  0.90919  0.65932  Biso   1.000  O
  O38      1.0000 0.82031  0.33776  0.61170  Biso   1.000  O
  O39      1.0000 0.10602  0.76633  0.56408  Biso   1.000  O
  O40      1.0000 0.39174  0.19490  0.51646  Biso   1.000  O
  O41      1.0000 0.67745  0.62347  0.80218  Biso   1.000  O
  O42      1.0000 0.96317  0.05204  0.75456  Biso   1.000  O
  O43      1.0000 0.66071  0.00265  0.38830  Biso   1.000  O
  O44      1.0000 0.94642  0.43122  0.34068  Biso   1.000  O
  O45      1.0000 0.23214  0.85979  0.29306  Biso   1.000  O
  O46      1.0000 0.51785  0.28836  0.24544  Biso   1.000  O
  O47      1.0000 0.80357  0.71693  0.19783  Biso   1.000  O
  O48      1.0000 0.08928  0.14551  0.48354  Biso   1.000  O
  O49      1.0000 0.37499  0.57408  0.43592  Biso   1.000  O
  O50      1.0000 0.54520  0.23368  0.32422  Biso   1.000  O
  O51      1.0000 0.83092  0.66225  0.27660  Biso   1.000  O
  O52      1.0000 0.11663  0.09082  0.22898  Biso   1.000  O
  O53      1.0000 0.40235  0.51939  0.18136  Biso   1.000  O
  O54      1.0000 0.68806  0.94797  0.46708  Biso   1.000  O
  O55      1.0000 0.97377  0.37654  0.41946  Biso   1.000  O
  O56      1.0000 0.25949  0.80511  0.37184  Biso   1.000  O
  O57      1.0000 0.65012  0.33245  0.39007  Biso   1.000  O
  O58      1.0000 0.93583  0.76102  0.34245  Biso   1.000  O
  O59      1.0000 0.22155  0.18959  0.29483  Biso   1.000  O
  O60      1.0000 0.50726  0.61816  0.24721  Biso   1.000  O
  O61      1.0000 0.79297  0.04674  0.19959  Biso   1.000  O
  O62      1.0000 0.07869  0.47531  0.48530  Biso   1.000  O
  O63      1.0000 0.36440  0.90388  0.43769  Biso   1.000  O
  O64      1.0000 0.24888  0.13490  0.37361  Biso   1.000  O
  O65      1.0000 0.53459  0.56348  0.32599  Biso   1.000  O
  O66      1.0000 0.82031  0.99205  0.27837  Biso   1.000  O
  O67      1.0000 0.10602  0.42062  0.23075  Biso   1.000  O
  O68      1.0000 0.39174  0.84919  0.18313  Biso   1.000  O
  O69      1.0000 0.67745  0.27776  0.46884  Biso   1.000  O
  O70      1.0000 0.96317  0.70633  0.42123  Biso   1.000  O
  O71      1.0000 0.37499  0.22839  0.43592  Biso   1.000  O
  O72      1.0000 0.66071  0.65696  0.38830  Biso   1.000  O
  O73      1.0000 0.94642  0.08553  0.34068  Biso   1.000  O
  O74      1.0000 0.23214  0.51410  0.29306  Biso   1.000  O
  O75      1.0000 0.51785  0.94267  0.24544  Biso   1.000  O
  O76      1.0000 0.80357  0.37124  0.19783  Biso   1.000  O
  O77      1.0000 0.08928  0.79982  0.48354  Biso   1.000  O
  O78      1.0000 0.24888  0.48062  0.37361  Biso   1.000  O
  O79      1.0000 0.53459  0.90919  0.32599  Biso   1.000  O
  O80      1.0000 0.82031  0.33776  0.27837  Biso   1.000  O
  O81      1.0000 0.10602  0.76633  0.23075  Biso   1.000  O
  O82      1.0000 0.39174  0.19490  0.18313  Biso   1.000  O
  O83      1.0000 0.67745  0.62347  0.46884  Biso   1.000  O
  O84      1.0000 0.96317  0.05204  0.42123  Biso   1.000  O
