data_image0
_cell_length_a       17.836
_cell_length_b       5.9119
_cell_length_c       20
_cell_angle_alpha    90
_cell_angle_beta     90
_cell_angle_gamma    90

_symmetry_space_group_name_H-M    "P 1"
_symmetry_int_tables_number       1

loop_
  _symmetry_equiv_pos_as_xyz
  'x, y, z'

loop_
  _atom_site_label
  _atom_site_occupancy
  _atom_site_fract_x
  _atom_site_fract_y
  _atom_site_fract_z
  _atom_site_thermal_displace_type
  _atom_site_B_iso_or_equiv
  _atom_site_type_symbol
  O1       1.0000 0.12677  0.59300  0.40815  Biso   1.000  O
  O2       1.0000 0.20377  0.34700  0.29834  Biso   1.000  O
  O3       1.0000 0.12677  0.09300  0.61930  Biso   1.000  O
  O4       1.0000 0.20377  0.84700  0.50950  Biso   1.000  O
  O5       1.0000 0.12677  0.16100  0.39295  Biso   1.000  O
  O6       1.0000 0.20377  0.40700  0.50274  Biso   1.000  O
  O7       1.0000 0.12677  0.66100  0.60409  Biso   1.000  O
  O8       1.0000 0.20377  0.90700  0.29159  Biso   1.000  O
  O9       1.0000 0.45677  0.16100  0.40815  Biso   1.000  O
  O10      1.0000 0.37977  0.40700  0.29834  Biso   1.000  O
  O11      1.0000 0.45677  0.66100  0.61930  Biso   1.000  O
  O12      1.0000 0.37977  0.90700  0.50950  Biso   1.000  O
  O13      1.0000 0.45677  0.59300  0.39295  Biso   1.000  O
  O14      1.0000 0.37977  0.34700  0.50274  Biso   1.000  O
  O15      1.0000 0.45677  0.09300  0.60409  Biso   1.000  O
  O16      1.0000 0.37977  0.84700  0.29159  Biso   1.000  O
  O17      1.0000 0.95676  0.16100  0.39295  Biso   1.000  O
  O18      1.0000 0.87977  0.40700  0.50274  Biso   1.000  O
  O19      1.0000 0.95676  0.66100  0.60409  Biso   1.000  O
  O20      1.0000 0.87977  0.90700  0.29159  Biso   1.000  O
  O21      1.0000 0.95676  0.59300  0.40815  Biso   1.000  O
  O22      1.0000 0.87977  0.34700  0.29834  Biso   1.000  O
  O23      1.0000 0.95676  0.09300  0.61930  Biso   1.000  O
  O24      1.0000 0.87977  0.84700  0.50950  Biso   1.000  O
  O25      1.0000 0.62677  0.59300  0.39295  Biso   1.000  O
  O26      1.0000 0.70377  0.34700  0.50274  Biso   1.000  O
  O27      1.0000 0.62677  0.09300  0.60409  Biso   1.000  O
  O28      1.0000 0.70377  0.84700  0.29159  Biso   1.000  O
  O29      1.0000 0.62677  0.16100  0.40815  Biso   1.000  O
  O30      1.0000 0.70377  0.40700  0.29834  Biso   1.000  O
  O31      1.0000 0.62677  0.66100  0.61930  Biso   1.000  O
  O32      1.0000 0.70377  0.90700  0.50950  Biso   1.000  O
  Ir1      1.0000 0.12530  0.12700  0.29497  Biso   1.000  Ir
  Ir2      1.0000 0.12530  0.62700  0.50612  Biso   1.000  Ir
  Ir3      1.0000 0.45824  0.62700  0.29497  Biso   1.000  Ir
  Ir4      1.0000 0.45824  0.12700  0.50612  Biso   1.000  Ir
  Ir5      1.0000 0.95823  0.62700  0.50612  Biso   1.000  Ir
  Ir6      1.0000 0.95823  0.12700  0.29497  Biso   1.000  Ir
  Ir7      1.0000 0.62530  0.12700  0.50612  Biso   1.000  Ir
  Ir8      1.0000 0.62530  0.62700  0.29497  Biso   1.000  Ir
  Ir9      1.0000 0.20836  0.37700  0.40054  Biso   1.000  Ir
  Ir10     1.0000 0.37518  0.37700  0.40054  Biso   1.000  Ir
  Ir11     1.0000 0.87518  0.37700  0.40054  Biso   1.000  Ir
  Ir12     1.0000 0.70836  0.37700  0.40054  Biso   1.000  Ir
  O33      1.0000 0.29177  0.59600  0.40054  Biso   1.000  O
  O34      1.0000 0.29177  0.15800  0.40054  Biso   1.000  O
  O35      1.0000 0.79177  0.15800  0.40054  Biso   1.000  O
  O36      1.0000 0.79177  0.59600  0.40054  Biso   1.000  O
  O37      1.0000 0.04177  0.89500  0.30383  Biso   1.000  O
  O38      1.0000 0.04177  0.39500  0.51499  Biso   1.000  O
  O39      1.0000 0.04177  0.85900  0.49725  Biso   1.000  O
  O40      1.0000 0.04177  0.35900  0.28610  Biso   1.000  O
  O41      1.0000 0.54177  0.85900  0.30383  Biso   1.000  O
  O42      1.0000 0.54177  0.35900  0.51499  Biso   1.000  O
  O43      1.0000 0.54177  0.89500  0.49725  Biso   1.000  O
  O44      1.0000 0.54177  0.39500  0.28610  Biso   1.000  O
