data_image0
_cell_length_a       6.64164
_cell_length_b       8.72335
_cell_length_c       45.3871
_cell_angle_alpha    90
_cell_angle_beta     90
_cell_angle_gamma    90

_symmetry_space_group_name_H-M    "P 1"
_symmetry_int_tables_number       1

loop_
  _symmetry_equiv_pos_as_xyz
  'x, y, z'

loop_
  _atom_site_label
  _atom_site_occupancy
  _atom_site_fract_x
  _atom_site_fract_y
  _atom_site_fract_z
  _atom_site_thermal_displace_type
  _atom_site_B_iso_or_equiv
  _atom_site_type_symbol
  O1       1.0000 0.50000  0.32474  0.16525  Biso   1.000  O
  O2       1.0000 0.50000  0.67526  0.16525  Biso   1.000  O
  O3       1.0000 0.00000  0.32474  0.17625  Biso   1.000  O
  O4       1.0000 0.00000  0.67526  0.17625  Biso   1.000  O
  O5       1.0000 0.00000  0.00000  0.18094  Biso   1.000  O
  O6       1.0000 0.28761  0.17526  0.20733  Biso   1.000  O
  O7       1.0000 0.71239  0.17526  0.20733  Biso   1.000  O
  Ir1      1.0000 0.00000  0.17534  0.20733  Biso   1.000  Ir
  Ir2      1.0000 0.50000  0.32465  0.20733  Biso   1.000  Ir
  O8       1.0000 0.31965  0.50000  0.20733  Biso   1.000  O
  O9       1.0000 0.68035  0.50000  0.20733  Biso   1.000  O
  Ir3      1.0000 0.50000  0.67534  0.20733  Biso   1.000  Ir
  Ir4      1.0000 0.00000  0.82466  0.20733  Biso   1.000  Ir
  O10      1.0000 0.28761  0.82474  0.20733  Biso   1.000  O
  O11      1.0000 0.71239  0.82474  0.20733  Biso   1.000  O
  O12      1.0000 0.00000  0.00000  0.23373  Biso   1.000  O
  O13      1.0000 0.00000  0.32474  0.23842  Biso   1.000  O
  O14      1.0000 0.00000  0.67526  0.23842  Biso   1.000  O
  O15      1.0000 0.50000  0.32474  0.24942  Biso   1.000  O
  O16      1.0000 0.50000  0.67526  0.24942  Biso   1.000  O
  O17      1.0000 0.50000  0.00000  0.25411  Biso   1.000  O
  O18      1.0000 0.21239  0.17526  0.28050  Biso   1.000  O
  O19      1.0000 0.78761  0.17526  0.28050  Biso   1.000  O
  Ir5      1.0000 0.50000  0.17534  0.28050  Biso   1.000  Ir
  Ir6      1.0000 0.00000  0.32465  0.28050  Biso   1.000  Ir
  O20      1.0000 0.18035  0.50000  0.28050  Biso   1.000  O
  O21      1.0000 0.81965  0.50000  0.28050  Biso   1.000  O
  Ir7      1.0000 0.00000  0.67534  0.28050  Biso   1.000  Ir
  Ir8      1.0000 0.50000  0.82466  0.28050  Biso   1.000  Ir
  O22      1.0000 0.21239  0.82474  0.28050  Biso   1.000  O
  O23      1.0000 0.78761  0.82474  0.28050  Biso   1.000  O
  O24      1.0000 0.50000  0.00000  0.30689  Biso   1.000  O
  O25      1.0000 0.50000  0.32474  0.31158  Biso   1.000  O
  O26      1.0000 0.50000  0.67526  0.31158  Biso   1.000  O
  O27      1.0000 0.00000  0.32474  0.32259  Biso   1.000  O
  O28      1.0000 0.00000  0.67526  0.32259  Biso   1.000  O
  O29      1.0000 0.00000  0.00000  0.32728  Biso   1.000  O
  O30      1.0000 0.28761  0.17526  0.35366  Biso   1.000  O
  Ir9      1.0000 0.50000  0.32465  0.35366  Biso   1.000  Ir
  O31      1.0000 0.31965  0.50000  0.35366  Biso   1.000  O
  Ir10     1.0000 0.50000  0.67534  0.35366  Biso   1.000  Ir
  O32      1.0000 0.71239  0.17526  0.35366  Biso   1.000  O
  Ir11     1.0000 0.00000  0.17534  0.35366  Biso   1.000  Ir
  O33      1.0000 0.68035  0.50000  0.35366  Biso   1.000  O
  O34      1.0000 0.28761  0.82474  0.35366  Biso   1.000  O
  Ir12     1.0000 0.00000  0.82466  0.35366  Biso   1.000  Ir
  O35      1.0000 0.71239  0.82474  0.35366  Biso   1.000  O
  O36      1.0000 0.00000  0.00000  0.38006  Biso   1.000  O
  O37      1.0000 0.00000  0.32474  0.38474  Biso   1.000  O
  O38      1.0000 0.00000  0.67526  0.38474  Biso   1.000  O
  O39      1.0000 0.50000  0.32474  0.39576  Biso   1.000  O
  O40      1.0000 0.50000  0.67526  0.39576  Biso   1.000  O
  O41      1.0000 0.50000  0.00000  0.40044  Biso   1.000  O
  O42      1.0000 0.21239  0.17526  0.42684  Biso   1.000  O
  O43      1.0000 0.78761  0.17526  0.42684  Biso   1.000  O
  Ir13     1.0000 0.50000  0.17534  0.42684  Biso   1.000  Ir
  Ir14     1.0000 0.00000  0.32465  0.42684  Biso   1.000  Ir
  O44      1.0000 0.18035  0.50000  0.42684  Biso   1.000  O
  O45      1.0000 0.81965  0.50000  0.42684  Biso   1.000  O
  Ir15     1.0000 0.00000  0.67534  0.42684  Biso   1.000  Ir
  Ir16     1.0000 0.50000  0.82466  0.42684  Biso   1.000  Ir
  O46      1.0000 0.21239  0.82474  0.42684  Biso   1.000  O
  O47      1.0000 0.78761  0.82474  0.42684  Biso   1.000  O
  O48      1.0000 0.50000  0.00000  0.45322  Biso   1.000  O
  O49      1.0000 0.50000  0.32474  0.45792  Biso   1.000  O
  O50      1.0000 0.50000  0.67526  0.45792  Biso   1.000  O
  O51      1.0000 0.00000  0.32474  0.46892  Biso   1.000  O
  O52      1.0000 0.00000  0.67526  0.46892  Biso   1.000  O
  O53      1.0000 0.00000  0.00000  0.47361  Biso   1.000  O
  O54      1.0000 0.28761  0.17526  0.50000  Biso   1.000  O
  Ir17     1.0000 0.50000  0.32465  0.50000  Biso   1.000  Ir
  O55      1.0000 0.31965  0.50000  0.50000  Biso   1.000  O
  Ir18     1.0000 0.50000  0.67534  0.50000  Biso   1.000  Ir
  O56      1.0000 0.28761  0.82474  0.50000  Biso   1.000  O
  O57      1.0000 0.71239  0.17526  0.50000  Biso   1.000  O
  Ir19     1.0000 0.00000  0.17534  0.50000  Biso   1.000  Ir
  O58      1.0000 0.68035  0.50000  0.50000  Biso   1.000  O
  Ir20     1.0000 0.00000  0.82466  0.50000  Biso   1.000  Ir
  O59      1.0000 0.71239  0.82474  0.50000  Biso   1.000  O
  O60      1.0000 0.00000  0.00000  0.52640  Biso   1.000  O
  O61      1.0000 0.00000  0.32474  0.53108  Biso   1.000  O
  O62      1.0000 0.00000  0.67526  0.53108  Biso   1.000  O
  O63      1.0000 0.50000  0.32474  0.54208  Biso   1.000  O
  O64      1.0000 0.50000  0.67526  0.54208  Biso   1.000  O
  O65      1.0000 0.50000  0.00000  0.54678  Biso   1.000  O
  O66      1.0000 0.21239  0.17526  0.57316  Biso   1.000  O
  O67      1.0000 0.78761  0.17526  0.57316  Biso   1.000  O
  Ir21     1.0000 0.50000  0.17534  0.57316  Biso   1.000  Ir
  Ir22     1.0000 0.00000  0.32465  0.57316  Biso   1.000  Ir
  O68      1.0000 0.18035  0.50000  0.57316  Biso   1.000  O
  O69      1.0000 0.81965  0.50000  0.57316  Biso   1.000  O
  Ir23     1.0000 0.00000  0.67534  0.57316  Biso   1.000  Ir
  Ir24     1.0000 0.50000  0.82466  0.57316  Biso   1.000  Ir
  O70      1.0000 0.21239  0.82474  0.57316  Biso   1.000  O
  O71      1.0000 0.78761  0.82474  0.57316  Biso   1.000  O
  O72      1.0000 0.50000  0.00000  0.59956  Biso   1.000  O
  O73      1.0000 0.50000  0.32474  0.60425  Biso   1.000  O
  O74      1.0000 0.50000  0.67526  0.60425  Biso   1.000  O
  O75      1.0000 0.00000  0.32474  0.61526  Biso   1.000  O
  O76      1.0000 0.00000  0.67526  0.61526  Biso   1.000  O
  O77      1.0000 0.00000  0.00000  0.61994  Biso   1.000  O
  O78      1.0000 0.28761  0.17526  0.64634  Biso   1.000  O
  O79      1.0000 0.71239  0.17526  0.64634  Biso   1.000  O
  Ir25     1.0000 0.00000  0.17534  0.64634  Biso   1.000  Ir
  Ir26     1.0000 0.50000  0.32465  0.64634  Biso   1.000  Ir
  O80      1.0000 0.31965  0.50000  0.64634  Biso   1.000  O
  O81      1.0000 0.68035  0.50000  0.64634  Biso   1.000  O
  Ir27     1.0000 0.50000  0.67534  0.64634  Biso   1.000  Ir
  Ir28     1.0000 0.00000  0.82466  0.64634  Biso   1.000  Ir
  O82      1.0000 0.28761  0.82474  0.64634  Biso   1.000  O
  O83      1.0000 0.71239  0.82474  0.64634  Biso   1.000  O
  O84      1.0000 0.00000  0.00000  0.67272  Biso   1.000  O
  O85      1.0000 0.00000  0.32474  0.67741  Biso   1.000  O
  O86      1.0000 0.00000  0.67526  0.67741  Biso   1.000  O
  O87      1.0000 0.50000  0.32474  0.68842  Biso   1.000  O
  O88      1.0000 0.50000  0.67526  0.68842  Biso   1.000  O
  O89      1.0000 0.50000  0.00000  0.69311  Biso   1.000  O
  O90      1.0000 0.21239  0.17526  0.71950  Biso   1.000  O
  O91      1.0000 0.78761  0.17526  0.71950  Biso   1.000  O
  Ir29     1.0000 0.50000  0.17534  0.71950  Biso   1.000  Ir
  Ir30     1.0000 0.00000  0.32465  0.71950  Biso   1.000  Ir
  O92      1.0000 0.18035  0.50000  0.71950  Biso   1.000  O
  O93      1.0000 0.81965  0.50000  0.71950  Biso   1.000  O
  Ir31     1.0000 0.00000  0.67534  0.71950  Biso   1.000  Ir
  Ir32     1.0000 0.50000  0.82466  0.71950  Biso   1.000  Ir
  O94      1.0000 0.21239  0.82474  0.71950  Biso   1.000  O
  O95      1.0000 0.78761  0.82474  0.71950  Biso   1.000  O
  O96      1.0000 0.50000  0.00000  0.74589  Biso   1.000  O
  O97      1.0000 0.50000  0.32474  0.75058  Biso   1.000  O
  O98      1.0000 0.50000  0.67526  0.75058  Biso   1.000  O
  O99      1.0000 0.00000  0.32474  0.76158  Biso   1.000  O
  O100     1.0000 0.00000  0.67526  0.76158  Biso   1.000  O
  O101     1.0000 0.00000  0.00000  0.76627  Biso   1.000  O
  O102     1.0000 0.28761  0.17526  0.79267  Biso   1.000  O
  O103     1.0000 0.71239  0.17526  0.79267  Biso   1.000  O
  Ir33     1.0000 0.00000  0.17534  0.79267  Biso   1.000  Ir
  Ir34     1.0000 0.50000  0.32465  0.79267  Biso   1.000  Ir
  O104     1.0000 0.31965  0.50000  0.79267  Biso   1.000  O
  O105     1.0000 0.68035  0.50000  0.79267  Biso   1.000  O
  Ir35     1.0000 0.50000  0.67534  0.79267  Biso   1.000  Ir
  Ir36     1.0000 0.00000  0.82466  0.79267  Biso   1.000  Ir
  O106     1.0000 0.28761  0.82474  0.79267  Biso   1.000  O
  O107     1.0000 0.71239  0.82474  0.79267  Biso   1.000  O
  O108     1.0000 0.00000  0.00000  0.81906  Biso   1.000  O
  O109     1.0000 0.00000  0.32474  0.82375  Biso   1.000  O
  O110     1.0000 0.00000  0.67526  0.82375  Biso   1.000  O
  O111     1.0000 0.50000  0.32474  0.83475  Biso   1.000  O
  O112     1.0000 0.50000  0.67526  0.83475  Biso   1.000  O
