data_image0
_cell_length_a       8.61194
_cell_length_b       5.1456
_cell_length_c       27.6767
_cell_angle_alpha    90
_cell_angle_beta     90
_cell_angle_gamma    93.4064

_symmetry_space_group_name_H-M    "P 1"
_symmetry_int_tables_number       1

loop_
  _symmetry_equiv_pos_as_xyz
  'x, y, z'

loop_
  _atom_site_label
  _atom_site_occupancy
  _atom_site_fract_x
  _atom_site_fract_y
  _atom_site_fract_z
  _atom_site_thermal_displace_type
  _atom_site_B_iso_or_equiv
  _atom_site_type_symbol
  O1       1.0000 0.61912  0.78483  0.27099  Biso   1.000  O
  O2       1.0000 0.11912  0.28484  0.27099  Biso   1.000  O
  O3       1.0000 0.56935  0.27989  0.29339  Biso   1.000  O
  O4       1.0000 0.06935  0.77990  0.29339  Biso   1.000  O
  O5       1.0000 0.85329  0.11945  0.32119  Biso   1.000  O
  O6       1.0000 0.35329  0.61946  0.32119  Biso   1.000  O
  O7       1.0000 0.30350  0.11449  0.34360  Biso   1.000  O
  O8       1.0000 0.80350  0.61450  0.34360  Biso   1.000  O
  O9       1.0000 0.58087  0.93669  0.36600  Biso   1.000  O
  O10      1.0000 0.08088  0.43670  0.36600  Biso   1.000  O
  O11      1.0000 0.51913  0.43056  0.39379  Biso   1.000  O
  O12      1.0000 0.01914  0.93057  0.39379  Biso   1.000  O
  O13      1.0000 0.29648  0.75275  0.41619  Biso   1.000  O
  O14      1.0000 0.79648  0.25276  0.41619  Biso   1.000  O
  O15      1.0000 0.74670  0.74781  0.43860  Biso   1.000  O
  O16      1.0000 0.24670  0.24780  0.43860  Biso   1.000  O
  O17      1.0000 0.53065  0.08737  0.46640  Biso   1.000  O
  O18      1.0000 0.03065  0.58738  0.46640  Biso   1.000  O
  O19      1.0000 0.48087  0.58241  0.48880  Biso   1.000  O
  O20      1.0000 0.98087  0.08240  0.48880  Biso   1.000  O
  O21      1.0000 0.25832  0.90309  0.51131  Biso   1.000  O
  O22      1.0000 0.75871  0.40333  0.51120  Biso   1.000  O
  O23      1.0000 0.69613  0.90334  0.54000  Biso   1.000  O
  O24      1.0000 0.19634  0.40171  0.54023  Biso   1.000  O
  O25      1.0000 0.47116  0.22103  0.56093  Biso   1.000  O
  O26      1.0000 0.97179  0.72248  0.56044  Biso   1.000  O
  O27      1.0000 0.42293  0.71765  0.58384  Biso   1.000  O
  O28      1.0000 0.92328  0.21829  0.58373  Biso   1.000  O
  O29      1.0000 0.20573  0.05961  0.61158  Biso   1.000  O
  O30      1.0000 0.70555  0.55970  0.61039  Biso   1.000  O
  O31      1.0000 0.66159  0.04983  0.63546  Biso   1.000  O
  O32      1.0000 0.16133  0.54863  0.63564  Biso   1.000  O
  O33      1.0000 0.44902  0.36954  0.65374  Biso   1.000  O
  O34      1.0000 0.94831  0.86954  0.65344  Biso   1.000  O
  O35      1.0000 0.36611  0.84462  0.68162  Biso   1.000  O
  O36      1.0000 0.86915  0.34628  0.67983  Biso   1.000  O
  O37      1.0000 0.65329  0.68707  0.70529  Biso   1.000  O
  O38      1.0000 0.14795  0.17693  0.70819  Biso   1.000  O
  O39      1.0000 0.59963  0.20449  0.73211  Biso   1.000  O
  O40      1.0000 0.09276  0.69227  0.73176  Biso   1.000  O
  Ir1      1.0000 0.46131  0.94967  0.30728  Biso   1.000  Ir
  Ir2      1.0000 0.96133  0.44968  0.30728  Biso   1.000  Ir
  Ir3      1.0000 0.80001  0.93362  0.37989  Biso   1.000  Ir
  Ir4      1.0000 0.30001  0.43363  0.37989  Biso   1.000  Ir
  Ir5      1.0000 0.13868  0.91758  0.45249  Biso   1.000  Ir
  Ir6      1.0000 0.63868  0.41759  0.45249  Biso   1.000  Ir
  Ir7      1.0000 0.47770  0.90234  0.52529  Biso   1.000  Ir
  Ir8      1.0000 0.97821  0.40268  0.52531  Biso   1.000  Ir
  Ir9      1.0000 0.81616  0.88781  0.59866  Biso   1.000  Ir
  Ir10     1.0000 0.31621  0.38718  0.59913  Biso   1.000  Ir
  Ir11     1.0000 0.16724  0.88405  0.67452  Biso   1.000  Ir
  Ir12     1.0000 0.67022  0.38726  0.67364  Biso   1.000  Ir
  H1       1.0000 0.60101  0.33488  0.75794  Biso   1.000  H
  H2       1.0000 0.08706  0.82084  0.75773  Biso   1.000  H
