data_image0
_cell_length_a       6.3788
_cell_length_b       6.42053
_cell_length_c       27.8409
_cell_angle_alpha    90
_cell_angle_beta     90
_cell_angle_gamma    90

_symmetry_space_group_name_H-M    "P 1"
_symmetry_int_tables_number       1

loop_
  _symmetry_equiv_pos_as_xyz
  'x, y, z'

loop_
  _atom_site_label
  _atom_site_occupancy
  _atom_site_fract_x
  _atom_site_fract_y
  _atom_site_fract_z
  _atom_site_thermal_displace_type
  _atom_site_B_iso_or_equiv
  _atom_site_type_symbol
  O1       1.0000 0.00000  0.50000  0.26939  Biso   1.000  O
  O2       1.0000 0.25000  0.20000  0.31552  Biso   1.000  O
  O3       1.0000 0.25000  0.80000  0.31552  Biso   1.000  O
  O4       1.0000 0.00000  0.50000  0.36163  Biso   1.000  O
  O5       1.0000 0.00000  0.00000  0.38469  Biso   1.000  O
  O6       1.0000 0.25000  0.30000  0.43081  Biso   1.000  O
  O7       1.0000 0.25000  0.70000  0.43081  Biso   1.000  O
  O8       1.0000 0.00000  0.00000  0.47694  Biso   1.000  O
  O9       1.0000 0.00000  0.50000  0.50000  Biso   1.000  O
  O10      1.0000 0.25014  0.19162  0.54668  Biso   1.000  O
  O11      1.0000 0.25014  0.80838  0.54668  Biso   1.000  O
  O12      1.0000 0.00000  0.50000  0.59009  Biso   1.000  O
  O13      1.0000 0.00000  0.00000  0.61778  Biso   1.000  O
  O14      1.0000 0.25016  0.30817  0.65953  Biso   1.000  O
  O15      1.0000 0.25016  0.69183  0.65953  Biso   1.000  O
  O16      1.0000 0.00000  0.00000  0.70434  Biso   1.000  O
  O17      1.0000 0.00000  0.50000  0.72887  Biso   1.000  O
  O18      1.0000 0.50000  0.50000  0.26939  Biso   1.000  O
  O19      1.0000 0.75000  0.20000  0.31552  Biso   1.000  O
  O20      1.0000 0.75000  0.80000  0.31552  Biso   1.000  O
  O21      1.0000 0.50000  0.50000  0.36163  Biso   1.000  O
  O22      1.0000 0.50000  0.00000  0.38469  Biso   1.000  O
  O23      1.0000 0.75000  0.30000  0.43081  Biso   1.000  O
  O24      1.0000 0.75000  0.70000  0.43081  Biso   1.000  O
  O25      1.0000 0.50000  0.00000  0.47694  Biso   1.000  O
  O26      1.0000 0.50000  0.50000  0.50000  Biso   1.000  O
  O27      1.0000 0.74986  0.19162  0.54668  Biso   1.000  O
  O28      1.0000 0.74986  0.80838  0.54668  Biso   1.000  O
  O29      1.0000 0.50000  0.50000  0.58987  Biso   1.000  O
  O30      1.0000 0.50000  0.00000  0.61778  Biso   1.000  O
  O31      1.0000 0.74984  0.30817  0.65953  Biso   1.000  O
  O32      1.0000 0.74984  0.69183  0.65953  Biso   1.000  O
  O33      1.0000 0.50000  0.00000  0.70442  Biso   1.000  O
  O34      1.0000 0.50000  0.50000  0.72850  Biso   1.000  O
  Ir1      1.0000 0.00000  0.00000  0.31552  Biso   1.000  Ir
  Ir2      1.0000 0.25000  0.50000  0.31552  Biso   1.000  Ir
  Ir3      1.0000 0.25000  0.00000  0.43081  Biso   1.000  Ir
  Ir4      1.0000 0.00000  0.50000  0.43081  Biso   1.000  Ir
  Ir5      1.0000 0.00000  0.00000  0.54741  Biso   1.000  Ir
  Ir6      1.0000 0.25071  0.50000  0.54523  Biso   1.000  Ir
  Ir7      1.0000 0.25018  0.00000  0.66225  Biso   1.000  Ir
  Ir8      1.0000 0.00000  0.50000  0.66068  Biso   1.000  Ir
  Ir9      1.0000 0.50000  0.00000  0.31552  Biso   1.000  Ir
  Ir10     1.0000 0.75000  0.50000  0.31552  Biso   1.000  Ir
  Ir11     1.0000 0.75000  0.00000  0.43081  Biso   1.000  Ir
  Ir12     1.0000 0.50000  0.50000  0.43081  Biso   1.000  Ir
  Ir13     1.0000 0.50000  0.00000  0.54739  Biso   1.000  Ir
  Ir14     1.0000 0.74929  0.50000  0.54523  Biso   1.000  Ir
  Ir15     1.0000 0.74982  0.00000  0.66225  Biso   1.000  Ir
  Ir16     1.0000 0.50000  0.50000  0.66396  Biso   1.000  Ir
  H1       1.0000 0.00000  0.50000  0.76347  Biso   1.000  H
