data_image0
_cell_length_a       17.836
_cell_length_b       5.9119
_cell_length_c       20.338
_cell_angle_alpha    90
_cell_angle_beta     90
_cell_angle_gamma    90

_symmetry_space_group_name_H-M    "P 1"
_symmetry_int_tables_number       1

loop_
  _symmetry_equiv_pos_as_xyz
  'x, y, z'

loop_
  _atom_site_label
  _atom_site_occupancy
  _atom_site_fract_x
  _atom_site_fract_y
  _atom_site_fract_z
  _atom_site_thermal_displace_type
  _atom_site_B_iso_or_equiv
  _atom_site_type_symbol
  O1       1.0000 0.12890  0.63032  0.45349  Biso   1.000  O
  O2       1.0000 0.20590  0.38432  0.34551  Biso   1.000  O
  O3       1.0000 0.12890  0.13032  0.66113  Biso   1.000  O
  O4       1.0000 0.20590  0.88432  0.55316  Biso   1.000  O
  O5       1.0000 0.12890  0.19832  0.43854  Biso   1.000  O
  O6       1.0000 0.20590  0.44432  0.54651  Biso   1.000  O
  O7       1.0000 0.12890  0.69832  0.64618  Biso   1.000  O
  O8       1.0000 0.20590  0.94432  0.33887  Biso   1.000  O
  O9       1.0000 0.20590  0.94432  0.75416  Biso   1.000  O
  O10      1.0000 0.45890  0.19832  0.45349  Biso   1.000  O
  O11      1.0000 0.38190  0.44432  0.34551  Biso   1.000  O
  O12      1.0000 0.45890  0.69832  0.66113  Biso   1.000  O
  O13      1.0000 0.38190  0.94432  0.55316  Biso   1.000  O
  O14      1.0000 0.45890  0.63032  0.43854  Biso   1.000  O
  O15      1.0000 0.38190  0.38432  0.54651  Biso   1.000  O
  O16      1.0000 0.45890  0.13032  0.64618  Biso   1.000  O
  O17      1.0000 0.38190  0.88432  0.33887  Biso   1.000  O
  O18      1.0000 0.38190  0.88432  0.75416  Biso   1.000  O
  O19      1.0000 0.95890  0.19832  0.43854  Biso   1.000  O
  O20      1.0000 0.88190  0.44432  0.54651  Biso   1.000  O
  O21      1.0000 0.95890  0.69832  0.64618  Biso   1.000  O
  O22      1.0000 0.88190  0.94432  0.33887  Biso   1.000  O
  O23      1.0000 0.88190  0.94432  0.75416  Biso   1.000  O
  O24      1.0000 0.95890  0.63032  0.45349  Biso   1.000  O
  O25      1.0000 0.88190  0.38432  0.34551  Biso   1.000  O
  O26      1.0000 0.95890  0.13032  0.66113  Biso   1.000  O
  O27      1.0000 0.88190  0.88432  0.55316  Biso   1.000  O
  O28      1.0000 0.62890  0.63032  0.43854  Biso   1.000  O
  O29      1.0000 0.70590  0.38432  0.54651  Biso   1.000  O
  O30      1.0000 0.62890  0.13032  0.64618  Biso   1.000  O
  O31      1.0000 0.70590  0.88432  0.33887  Biso   1.000  O
  O32      1.0000 0.70590  0.88432  0.75416  Biso   1.000  O
  O33      1.0000 0.62890  0.19832  0.45349  Biso   1.000  O
  O34      1.0000 0.70590  0.44432  0.34551  Biso   1.000  O
  O35      1.0000 0.62890  0.69832  0.66113  Biso   1.000  O
  O36      1.0000 0.70590  0.94432  0.55316  Biso   1.000  O
  Ir1      1.0000 0.12743  0.16432  0.34219  Biso   1.000  Ir
  Ir2      1.0000 0.12743  0.66432  0.54983  Biso   1.000  Ir
  Ir3      1.0000 0.46037  0.66432  0.34219  Biso   1.000  Ir
  Ir4      1.0000 0.46037  0.16432  0.54983  Biso   1.000  Ir
  Ir5      1.0000 0.96037  0.66432  0.54983  Biso   1.000  Ir
  Ir6      1.0000 0.96037  0.16432  0.34219  Biso   1.000  Ir
  Ir7      1.0000 0.62743  0.16432  0.54983  Biso   1.000  Ir
  Ir8      1.0000 0.62743  0.66432  0.34219  Biso   1.000  Ir
  Ir9      1.0000 0.21049  0.41432  0.44601  Biso   1.000  Ir
  Ir10     1.0000 0.21049  0.91432  0.65366  Biso   1.000  Ir
  Ir11     1.0000 0.37731  0.41432  0.44601  Biso   1.000  Ir
  Ir12     1.0000 0.37731  0.91432  0.65366  Biso   1.000  Ir
  Ir13     1.0000 0.87731  0.41432  0.44601  Biso   1.000  Ir
  Ir14     1.0000 0.87731  0.91432  0.65366  Biso   1.000  Ir
  Ir15     1.0000 0.71049  0.41432  0.44601  Biso   1.000  Ir
  Ir16     1.0000 0.71049  0.91432  0.65366  Biso   1.000  Ir
  O37      1.0000 0.29390  0.63332  0.44601  Biso   1.000  O
  O38      1.0000 0.29390  0.13332  0.65366  Biso   1.000  O
  O39      1.0000 0.29390  0.19532  0.44601  Biso   1.000  O
  O40      1.0000 0.29390  0.69532  0.65366  Biso   1.000  O
  O41      1.0000 0.79390  0.19532  0.44601  Biso   1.000  O
  O42      1.0000 0.79390  0.69532  0.65366  Biso   1.000  O
  O43      1.0000 0.79390  0.63332  0.44601  Biso   1.000  O
  O44      1.0000 0.79390  0.13332  0.65366  Biso   1.000  O
  O45      1.0000 0.04390  0.93232  0.35091  Biso   1.000  O
  O46      1.0000 0.04390  0.43232  0.55856  Biso   1.000  O
  O47      1.0000 0.04390  0.89632  0.54111  Biso   1.000  O
  O48      1.0000 0.04390  0.39632  0.33347  Biso   1.000  O
  O49      1.0000 0.54390  0.89632  0.35091  Biso   1.000  O
  O50      1.0000 0.54390  0.39632  0.55856  Biso   1.000  O
  O51      1.0000 0.54390  0.93232  0.54111  Biso   1.000  O
  O52      1.0000 0.54390  0.43232  0.33347  Biso   1.000  O
