data_image0
_cell_length_a       9.3927
_cell_length_b       8.72335
_cell_length_c       27.0937
_cell_angle_alpha    90
_cell_angle_beta     90
_cell_angle_gamma    90

_symmetry_space_group_name_H-M    "P 1"
_symmetry_int_tables_number       1

loop_
  _symmetry_equiv_pos_as_xyz
  'x, y, z'

loop_
  _atom_site_label
  _atom_site_occupancy
  _atom_site_fract_x
  _atom_site_fract_y
  _atom_site_fract_z
  _atom_site_thermal_displace_type
  _atom_site_B_iso_or_equiv
  _atom_site_type_symbol
  O1       1.0000 0.19637  0.32474  0.27682  Biso   1.000  O
  O2       1.0000 0.19637  0.67526  0.27682  Biso   1.000  O
  O3       1.0000 0.44636  0.17526  0.28985  Biso   1.000  O
  O4       1.0000 0.44636  0.82474  0.28985  Biso   1.000  O
  O5       1.0000 0.43034  0.50000  0.29540  Biso   1.000  O
  O6       1.0000 0.24999  0.50000  0.35792  Biso   1.000  O
  O7       1.0000 0.23397  0.17526  0.36348  Biso   1.000  O
  O8       1.0000 0.23397  0.82474  0.36348  Biso   1.000  O
  O9       1.0000 0.48397  0.32474  0.37652  Biso   1.000  O
  O10      1.0000 0.48397  0.67526  0.37652  Biso   1.000  O
  O11      1.0000 0.50000  0.00000  0.38207  Biso   1.000  O
  O12      1.0000 0.18034  0.00000  0.44458  Biso   1.000  O
  O13      1.0000 0.19637  0.32474  0.45015  Biso   1.000  O
  O14      1.0000 0.19637  0.67526  0.45015  Biso   1.000  O
  O15      1.0000 0.44636  0.17526  0.46318  Biso   1.000  O
  O16      1.0000 0.44636  0.82474  0.46318  Biso   1.000  O
  O17      1.0000 0.43034  0.50000  0.46873  Biso   1.000  O
  O18      1.0000 0.24999  0.50000  0.53127  Biso   1.000  O
  O19      1.0000 0.23397  0.17526  0.53682  Biso   1.000  O
  O20      1.0000 0.23397  0.82474  0.53682  Biso   1.000  O
  O21      1.0000 0.48273  0.32279  0.55074  Biso   1.000  O
  O22      1.0000 0.48346  0.67599  0.55044  Biso   1.000  O
  O23      1.0000 0.49895  0.99988  0.55817  Biso   1.000  O
  O24      1.0000 0.18376  0.00068  0.61760  Biso   1.000  O
  O25      1.0000 0.20364  0.32335  0.62133  Biso   1.000  O
  O26      1.0000 0.19435  0.67123  0.62285  Biso   1.000  O
  O27      1.0000 0.45451  0.17730  0.64017  Biso   1.000  O
  O28      1.0000 0.44985  0.81806  0.63874  Biso   1.000  O
  O29      1.0000 0.42379  0.49600  0.64238  Biso   1.000  O
  O30      1.0000 0.25165  0.49750  0.70720  Biso   1.000  O
  O31      1.0000 0.23036  0.19196  0.70489  Biso   1.000  O
  O32      1.0000 0.22364  0.80331  0.71008  Biso   1.000  O
  O33      1.0000 0.48955  0.32855  0.72580  Biso   1.000  O
  O34      1.0000 0.48121  0.66524  0.72394  Biso   1.000  O
  O35      1.0000 0.69637  0.32474  0.27682  Biso   1.000  O
  O36      1.0000 0.69637  0.67526  0.27682  Biso   1.000  O
  O37      1.0000 0.94636  0.17526  0.28985  Biso   1.000  O
  O38      1.0000 0.94636  0.82474  0.28985  Biso   1.000  O
  O39      1.0000 0.93034  0.50000  0.29540  Biso   1.000  O
  O40      1.0000 0.74999  0.50000  0.35792  Biso   1.000  O
  O41      1.0000 0.73397  0.17526  0.36348  Biso   1.000  O
  O42      1.0000 0.73397  0.82474  0.36348  Biso   1.000  O
  O43      1.0000 0.98397  0.32474  0.37652  Biso   1.000  O
  O44      1.0000 0.98397  0.67526  0.37652  Biso   1.000  O
  O45      1.0000 0.00000  0.00000  0.38207  Biso   1.000  O
  O46      1.0000 0.68034  0.00000  0.44458  Biso   1.000  O
  O47      1.0000 0.69637  0.32474  0.45015  Biso   1.000  O
  O48      1.0000 0.69637  0.67526  0.45015  Biso   1.000  O
  O49      1.0000 0.94636  0.17526  0.46318  Biso   1.000  O
  O50      1.0000 0.94636  0.82474  0.46318  Biso   1.000  O
  O51      1.0000 0.93034  0.50000  0.46873  Biso   1.000  O
  O52      1.0000 0.74999  0.50000  0.53127  Biso   1.000  O
  O53      1.0000 0.73397  0.17526  0.53682  Biso   1.000  O
  O54      1.0000 0.73397  0.82474  0.53682  Biso   1.000  O
  O55      1.0000 0.98352  0.32387  0.55044  Biso   1.000  O
  O56      1.0000 0.98314  0.67713  0.55026  Biso   1.000  O
  O57      1.0000 0.99926  0.00391  0.55758  Biso   1.000  O
  O58      1.0000 0.68265  0.99884  0.61807  Biso   1.000  O
  O59      1.0000 0.70298  0.32439  0.62110  Biso   1.000  O
  O60      1.0000 0.70269  0.67481  0.62115  Biso   1.000  O
  O61      1.0000 0.95407  0.17927  0.63925  Biso   1.000  O
  O62      1.0000 0.95140  0.82396  0.63864  Biso   1.000  O
  O63      1.0000 0.91737  0.50012  0.63918  Biso   1.000  O
  O64      1.0000 0.74974  0.50056  0.70595  Biso   1.000  O
  O65      1.0000 0.72811  0.18821  0.70447  Biso   1.000  O
  O66      1.0000 0.73029  0.80958  0.70564  Biso   1.000  O
  O67      1.0000 0.98449  0.33991  0.72226  Biso   1.000  O
  O68      1.0000 0.98842  0.66003  0.72148  Biso   1.000  O
  Ir1      1.0000 0.34016  0.32466  0.32667  Biso   1.000  Ir
  Ir2      1.0000 0.34016  0.67535  0.32667  Biso   1.000  Ir
  Ir3      1.0000 0.09016  0.17534  0.41333  Biso   1.000  Ir
  Ir4      1.0000 0.09016  0.82466  0.41333  Biso   1.000  Ir
  Ir5      1.0000 0.34016  0.32466  0.50000  Biso   1.000  Ir
  Ir6      1.0000 0.34016  0.67535  0.50000  Biso   1.000  Ir
  Ir7      1.0000 0.09375  0.17999  0.58756  Biso   1.000  Ir
  Ir8      1.0000 0.09118  0.82611  0.58657  Biso   1.000  Ir
  Ir9      1.0000 0.35621  0.32528  0.68049  Biso   1.000  Ir
  Ir10     1.0000 0.33322  0.68040  0.67514  Biso   1.000  Ir
  Ir11     1.0000 0.84017  0.32466  0.32667  Biso   1.000  Ir
  Ir12     1.0000 0.84017  0.67535  0.32667  Biso   1.000  Ir
  Ir13     1.0000 0.59016  0.17534  0.41333  Biso   1.000  Ir
  Ir14     1.0000 0.59016  0.82466  0.41333  Biso   1.000  Ir
  Ir15     1.0000 0.84017  0.32466  0.50000  Biso   1.000  Ir
  Ir16     1.0000 0.84017  0.67535  0.50000  Biso   1.000  Ir
  Ir17     1.0000 0.59209  0.17655  0.58751  Biso   1.000  Ir
  Ir18     1.0000 0.59273  0.82150  0.58735  Biso   1.000  Ir
  Ir19     1.0000 0.84709  0.32296  0.67806  Biso   1.000  Ir
  Ir20     1.0000 0.85094  0.67680  0.67731  Biso   1.000  Ir
  H1       1.0000 0.56026  0.73991  0.71844  Biso   1.000  H
