data_image0
_cell_length_a       4.88305
_cell_length_b       4.88305
_cell_length_c       25.7609
_cell_angle_alpha    90
_cell_angle_beta     90
_cell_angle_gamma    60

_symmetry_space_group_name_H-M    "P 1"
_symmetry_int_tables_number       1

loop_
  _symmetry_equiv_pos_as_xyz
  'x, y, z'

loop_
  _atom_site_label
  _atom_site_occupancy
  _atom_site_fract_x
  _atom_site_fract_y
  _atom_site_fract_z
  _atom_site_thermal_displace_type
  _atom_site_B_iso_or_equiv
  _atom_site_type_symbol
  O1       1.0000 0.69140  0.00000  0.29114  Biso   1.000  O
  O2       1.0000 0.99998  0.34571  0.29114  Biso   1.000  O
  O3       1.0000 0.34569  0.65429  0.29114  Biso   1.000  O
  Ir1      1.0000 0.01236  0.66667  0.33291  Biso   1.000  Ir
  O4       1.0000 0.33333  0.33333  0.37468  Biso   1.000  O
  O5       1.0000 0.67902  0.67902  0.37468  Biso   1.000  O
  O6       1.0000 0.02471  0.98764  0.37468  Biso   1.000  O
  Ir2      1.0000 0.34569  0.00000  0.41646  Biso   1.000  Ir
  O7       1.0000 0.66665  0.01238  0.45823  Biso   1.000  O
  O8       1.0000 0.01236  0.32096  0.45823  Biso   1.000  O
  O9       1.0000 0.35807  0.66667  0.45823  Biso   1.000  O
  Ir3      1.0000 0.67902  0.33333  0.50000  Biso   1.000  Ir
  O10      1.0000 0.00000  0.00000  0.54177  Biso   1.000  O
  O11      1.0000 0.34569  0.34569  0.54177  Biso   1.000  O
  O12      1.0000 0.69138  0.65431  0.54177  Biso   1.000  O
  Ir4      1.0000 0.01236  0.66667  0.58354  Biso   1.000  Ir
  O13      1.0000 0.02473  0.33333  0.62532  Biso   1.000  O
  O14      1.0000 0.33331  0.67904  0.62532  Biso   1.000  O
  O15      1.0000 0.67902  0.98762  0.62532  Biso   1.000  O
  Ir5      1.0000 0.34569  0.00000  0.66709  Biso   1.000  Ir
  O16      1.0000 0.01236  0.01236  0.70886  Biso   1.000  O
  O17      1.0000 0.35805  0.32098  0.70886  Biso   1.000  O
  O18      1.0000 0.66667  0.66667  0.70886  Biso   1.000  O
