data_image0
_cell_length_a       6.3788
_cell_length_b       6.42053
_cell_length_c       27.8409
_cell_angle_alpha    90
_cell_angle_beta     90
_cell_angle_gamma    90

_symmetry_space_group_name_H-M    "P 1"
_symmetry_int_tables_number       1

loop_
  _symmetry_equiv_pos_as_xyz
  'x, y, z'

loop_
  _atom_site_label
  _atom_site_occupancy
  _atom_site_fract_x
  _atom_site_fract_y
  _atom_site_fract_z
  _atom_site_thermal_displace_type
  _atom_site_B_iso_or_equiv
  _atom_site_type_symbol
  O1       1.0000 0.00000  0.50000  0.26939  Biso   1.000  O
  O2       1.0000 0.25000  0.20000  0.31552  Biso   1.000  O
  O3       1.0000 0.25000  0.80000  0.31552  Biso   1.000  O
  O4       1.0000 0.00000  0.50000  0.36163  Biso   1.000  O
  O5       1.0000 0.00000  0.00000  0.38469  Biso   1.000  O
  O6       1.0000 0.25000  0.30000  0.43081  Biso   1.000  O
  O7       1.0000 0.25000  0.70000  0.43081  Biso   1.000  O
  O8       1.0000 0.00000  0.00000  0.47694  Biso   1.000  O
  O9       1.0000 0.00000  0.50000  0.50000  Biso   1.000  O
  O10      1.0000 0.24995  0.19482  0.54646  Biso   1.000  O
  O11      1.0000 0.24979  0.81133  0.54704  Biso   1.000  O
  O12      1.0000 0.00000  0.50268  0.59005  Biso   1.000  O
  O13      1.0000 0.00000  0.01434  0.61812  Biso   1.000  O
  O14      1.0000 0.25134  0.32262  0.66282  Biso   1.000  O
  O15      1.0000 0.24863  0.70634  0.65833  Biso   1.000  O
  O16      1.0000 0.00000  0.01333  0.70474  Biso   1.000  O
  O17      1.0000 0.00000  0.52855  0.72886  Biso   1.000  O
  O18      1.0000 0.50000  0.50000  0.26939  Biso   1.000  O
  O19      1.0000 0.75000  0.20000  0.31552  Biso   1.000  O
  O20      1.0000 0.75000  0.80000  0.31552  Biso   1.000  O
  O21      1.0000 0.50000  0.50000  0.36163  Biso   1.000  O
  O22      1.0000 0.50000  0.00000  0.38469  Biso   1.000  O
  O23      1.0000 0.75000  0.30000  0.43081  Biso   1.000  O
  O24      1.0000 0.75000  0.70000  0.43081  Biso   1.000  O
  O25      1.0000 0.50000  0.00000  0.47694  Biso   1.000  O
  O26      1.0000 0.50000  0.50000  0.50000  Biso   1.000  O
  O27      1.0000 0.75005  0.19482  0.54646  Biso   1.000  O
  O28      1.0000 0.75021  0.81133  0.54704  Biso   1.000  O
  O29      1.0000 0.50000  0.50188  0.58945  Biso   1.000  O
  O30      1.0000 0.50000  0.01336  0.61818  Biso   1.000  O
  O31      1.0000 0.74866  0.32262  0.66282  Biso   1.000  O
  O32      1.0000 0.75137  0.70634  0.65833  Biso   1.000  O
  O33      1.0000 0.50000  0.00570  0.70456  Biso   1.000  O
  O34      1.0000 0.50000  0.56065  0.73094  Biso   1.000  O
  O35      1.0000 0.50000  0.37510  0.75926  Biso   1.000  O
  Ir1      1.0000 0.00000  0.00000  0.31552  Biso   1.000  Ir
  Ir2      1.0000 0.25000  0.50000  0.31552  Biso   1.000  Ir
  Ir3      1.0000 0.25000  0.00000  0.43081  Biso   1.000  Ir
  Ir4      1.0000 0.00000  0.50000  0.43081  Biso   1.000  Ir
  Ir5      1.0000 0.00000  0.00359  0.54754  Biso   1.000  Ir
  Ir6      1.0000 0.24952  0.50278  0.54516  Biso   1.000  Ir
  Ir7      1.0000 0.24987  0.01396  0.66253  Biso   1.000  Ir
  Ir8      1.0000 0.00000  0.51510  0.66443  Biso   1.000  Ir
  Ir9      1.0000 0.50000  0.00000  0.31552  Biso   1.000  Ir
  Ir10     1.0000 0.75000  0.50000  0.31552  Biso   1.000  Ir
  Ir11     1.0000 0.75000  0.00000  0.43081  Biso   1.000  Ir
  Ir12     1.0000 0.50000  0.50000  0.43081  Biso   1.000  Ir
  Ir13     1.0000 0.50000  0.00361  0.54762  Biso   1.000  Ir
  Ir14     1.0000 0.75048  0.50278  0.54516  Biso   1.000  Ir
  Ir15     1.0000 0.75013  0.01396  0.66253  Biso   1.000  Ir
  Ir16     1.0000 0.50000  0.51516  0.66240  Biso   1.000  Ir
  H1       1.0000 0.50000  0.43769  0.79153  Biso   1.000  H
