data_image0
_cell_length_a       7.0938
_cell_length_b       7.0938
_cell_length_c       28.1891
_cell_angle_alpha    90
_cell_angle_beta     90
_cell_angle_gamma    92.9993

_symmetry_space_group_name_H-M    "P 1"
_symmetry_int_tables_number       1

loop_
  _symmetry_equiv_pos_as_xyz
  'x, y, z'

loop_
  _atom_site_label
  _atom_site_occupancy
  _atom_site_fract_x
  _atom_site_fract_y
  _atom_site_fract_z
  _atom_site_thermal_displace_type
  _atom_site_B_iso_or_equiv
  _atom_site_type_symbol
  Ir1      1.0000 0.49127  0.32803  0.28543  Biso   1.000  Ir
  Ir2      1.0000 0.99127  0.82803  0.28543  Biso   1.000  Ir
  Ir3      1.0000 0.01614  0.30317  0.41092  Biso   1.000  Ir
  Ir4      1.0000 0.51614  0.80317  0.41092  Biso   1.000  Ir
  Ir5      1.0000 0.03889  0.77727  0.53679  Biso   1.000  Ir
  Ir6      1.0000 0.54025  0.28024  0.53545  Biso   1.000  Ir
  Ir7      1.0000 0.06410  0.24540  0.66418  Biso   1.000  Ir
  Ir8      1.0000 0.56708  0.74997  0.66323  Biso   1.000  Ir
  Ir9      1.0000 0.49127  0.82803  0.28543  Biso   1.000  Ir
  Ir10     1.0000 0.99127  0.32803  0.28543  Biso   1.000  Ir
  Ir11     1.0000 0.01614  0.80317  0.41092  Biso   1.000  Ir
  Ir12     1.0000 0.51614  0.30317  0.41092  Biso   1.000  Ir
  Ir13     1.0000 0.04045  0.27870  0.53674  Biso   1.000  Ir
  Ir14     1.0000 0.54061  0.77956  0.53659  Biso   1.000  Ir
  Ir15     1.0000 0.06208  0.74475  0.66342  Biso   1.000  Ir
  Ir16     1.0000 0.55658  0.24216  0.65811  Biso   1.000  Ir
  O1       1.0000 0.42655  0.23844  0.34818  Biso   1.000  O
  O2       1.0000 0.92655  0.73844  0.34818  Biso   1.000  O
  O3       1.0000 0.45141  0.71358  0.47367  Biso   1.000  O
  O4       1.0000 0.95141  0.21358  0.47367  Biso   1.000  O
  O5       1.0000 0.46528  0.18160  0.59761  Biso   1.000  O
  O6       1.0000 0.97464  0.68994  0.59982  Biso   1.000  O
  O7       1.0000 0.01926  0.15966  0.72799  Biso   1.000  O
  O8       1.0000 0.49350  0.67600  0.72859  Biso   1.000  O
  O9       1.0000 0.23744  0.25472  0.26607  Biso   1.000  O
  O10      1.0000 0.73744  0.75472  0.26607  Biso   1.000  O
  O11      1.0000 0.26230  0.72986  0.39156  Biso   1.000  O
  O12      1.0000 0.76230  0.22986  0.39156  Biso   1.000  O
  O13      1.0000 0.28470  0.20621  0.51668  Biso   1.000  O
  O14      1.0000 0.78604  0.70417  0.51675  Biso   1.000  O
  O15      1.0000 0.31164  0.67715  0.64465  Biso   1.000  O
  O16      1.0000 0.80906  0.17433  0.64691  Biso   1.000  O
  O17      1.0000 0.24511  0.90135  0.30479  Biso   1.000  O
  O18      1.0000 0.74511  0.40135  0.30479  Biso   1.000  O
  O19      1.0000 0.26997  0.37649  0.43029  Biso   1.000  O
  O20      1.0000 0.76997  0.87649  0.43029  Biso   1.000  O
  O21      1.0000 0.29270  0.85412  0.55588  Biso   1.000  O
  O22      1.0000 0.79236  0.35368  0.55635  Biso   1.000  O
  O23      1.0000 0.32375  0.32756  0.68267  Biso   1.000  O
  O24      1.0000 0.81808  0.82521  0.68389  Biso   1.000  O
  O25      1.0000 0.08085  0.39274  0.34818  Biso   1.000  O
  O26      1.0000 0.58085  0.89274  0.34818  Biso   1.000  O
  O27      1.0000 0.10571  0.86788  0.47367  Biso   1.000  O
  O28      1.0000 0.60571  0.36788  0.47367  Biso   1.000  O
  O29      1.0000 0.11921  0.33553  0.60070  Biso   1.000  O
  O30      1.0000 0.62730  0.83905  0.60017  Biso   1.000  O
  O31      1.0000 0.13843  0.81320  0.72869  Biso   1.000  O
  O32      1.0000 0.06459  0.58187  0.26606  Biso   1.000  O
  O33      1.0000 0.56459  0.08187  0.26606  Biso   1.000  O
  O34      1.0000 0.08945  0.05701  0.39155  Biso   1.000  O
  O35      1.0000 0.58945  0.55701  0.39155  Biso   1.000  O
  O36      1.0000 0.11391  0.53229  0.51706  Biso   1.000  O
  O37      1.0000 0.61361  0.03225  0.51700  Biso   1.000  O
  O38      1.0000 0.13908  0.99963  0.64437  Biso   1.000  O
  O39      1.0000 0.63791  0.49939  0.64815  Biso   1.000  O
  O40      1.0000 0.41796  0.57419  0.30479  Biso   1.000  O
  O41      1.0000 0.91796  0.07419  0.30479  Biso   1.000  O
  O42      1.0000 0.44283  0.04933  0.43029  Biso   1.000  O
  O43      1.0000 0.94283  0.54933  0.43029  Biso   1.000  O
  O44      1.0000 0.46405  0.52507  0.55598  Biso   1.000  O
  O45      1.0000 0.96265  0.02416  0.55548  Biso   1.000  O
  O46      1.0000 0.49074  0.99891  0.68350  Biso   1.000  O
  O47      1.0000 0.98913  0.49391  0.68324  Biso   1.000  O
  H1       1.0000 0.06089  0.02658  0.73342  Biso   1.000  H
  H2       1.0000 0.42754  0.55057  0.72679  Biso   1.000  H
  H3       1.0000 0.27702  0.80170  0.73314  Biso   1.000  H
