data_image0
_cell_length_a       5.1456
_cell_length_b       5.1456
_cell_length_c       39.493
_cell_angle_alpha    90
_cell_angle_beta     90
_cell_angle_gamma    56.652

_symmetry_space_group_name_H-M    "P 1"
_symmetry_int_tables_number       1

loop_
  _symmetry_equiv_pos_as_xyz
  'x, y, z'

loop_
  _atom_site_label
  _atom_site_occupancy
  _atom_site_fract_x
  _atom_site_fract_y
  _atom_site_fract_z
  _atom_site_thermal_displace_type
  _atom_site_B_iso_or_equiv
  _atom_site_type_symbol
  Ir1      1.0000 0.33868  0.33868  0.22801  Biso   1.000  Ir
  Ir2      1.0000 0.01604  0.01604  0.27889  Biso   1.000  Ir
  O1       1.0000 0.77693  0.12262  0.23775  Biso   1.000  O
  O2       1.0000 0.79999  0.45428  0.28863  Biso   1.000  O
  O3       1.0000 0.23210  0.57779  0.26915  Biso   1.000  O
  O4       1.0000 0.90044  0.55473  0.21827  Biso   1.000  O
  O5       1.0000 0.34569  0.65431  0.20257  Biso   1.000  O
  O6       1.0000 0.33165  0.02307  0.25345  Biso   1.000  O
  Ir3      1.0000 0.69340  0.69340  0.32977  Biso   1.000  Ir
  Ir4      1.0000 0.37077  0.37077  0.38065  Biso   1.000  Ir
  O7       1.0000 0.13166  0.47735  0.33951  Biso   1.000  O
  O8       1.0000 0.15472  0.80901  0.39039  Biso   1.000  O
  O9       1.0000 0.58682  0.93251  0.37091  Biso   1.000  O
  O10      1.0000 0.25516  0.90945  0.32003  Biso   1.000  O
  O11      1.0000 0.70041  0.00903  0.30433  Biso   1.000  O
  O12      1.0000 0.68637  0.37779  0.35521  Biso   1.000  O
  Ir5      1.0000 0.04813  0.04813  0.43153  Biso   1.000  Ir
  Ir6      1.0000 0.72549  0.72549  0.48241  Biso   1.000  Ir
  O13      1.0000 0.48638  0.83207  0.44127  Biso   1.000  O
  O14      1.0000 0.50944  0.16373  0.49215  Biso   1.000  O
  O15      1.0000 0.94155  0.28724  0.47267  Biso   1.000  O
  O16      1.0000 0.60989  0.26418  0.42179  Biso   1.000  O
  O17      1.0000 0.05514  0.36376  0.40609  Biso   1.000  O
  O18      1.0000 0.04110  0.73252  0.45697  Biso   1.000  O
  Ir7      1.0000 0.40285  0.40285  0.53329  Biso   1.000  Ir
  Ir8      1.0000 0.08021  0.08021  0.58417  Biso   1.000  Ir
  O19      1.0000 0.84110  0.18679  0.54303  Biso   1.000  O
  O20      1.0000 0.86416  0.51845  0.59391  Biso   1.000  O
  O21      1.0000 0.29627  0.64196  0.57443  Biso   1.000  O
  O22      1.0000 0.96461  0.61890  0.52355  Biso   1.000  O
  O23      1.0000 0.40986  0.71848  0.50785  Biso   1.000  O
  O24      1.0000 0.39582  0.08724  0.55873  Biso   1.000  O
  Ir9      1.0000 0.75757  0.75757  0.63505  Biso   1.000  Ir
  Ir10     1.0000 0.43494  0.43494  0.68593  Biso   1.000  Ir
  O25      1.0000 0.19583  0.54152  0.64479  Biso   1.000  O
  O26      1.0000 0.21889  0.87318  0.69567  Biso   1.000  O
  O27      1.0000 0.65099  0.99668  0.67619  Biso   1.000  O
  O28      1.0000 0.31933  0.97362  0.62531  Biso   1.000  O
  O29      1.0000 0.76458  0.07320  0.60961  Biso   1.000  O
  O30      1.0000 0.75054  0.44196  0.66049  Biso   1.000  O
  Ir11     1.0000 0.11230  0.11230  0.73681  Biso   1.000  Ir
  Ir12     1.0000 0.78966  0.78966  0.78769  Biso   1.000  Ir
  O31      1.0000 0.55055  0.89624  0.74655  Biso   1.000  O
  O32      1.0000 0.57361  0.22790  0.79743  Biso   1.000  O
  O33      1.0000 0.00572  0.35141  0.77796  Biso   1.000  O
  O34      1.0000 0.67406  0.32835  0.72707  Biso   1.000  O
  O35      1.0000 0.11931  0.42793  0.71137  Biso   1.000  O
  O36      1.0000 0.10527  0.79669  0.76225  Biso   1.000  O
