data_image0
_cell_length_a       5.1456
_cell_length_b       4.88305
_cell_length_c       40.2648
_cell_angle_alpha    93.4764
_cell_angle_beta     87.815
_cell_angle_gamma    118.326

_symmetry_space_group_name_H-M    "P 1"
_symmetry_int_tables_number       1

loop_
  _symmetry_equiv_pos_as_xyz
  'x, y, z'

loop_
  _atom_site_label
  _atom_site_occupancy
  _atom_site_fract_x
  _atom_site_fract_y
  _atom_site_fract_z
  _atom_site_thermal_displace_type
  _atom_site_B_iso_or_equiv
  _atom_site_type_symbol
  Ir1      1.0000 0.66250  0.36543  0.23271  Biso   1.000  Ir
  Ir2      1.0000 0.36250  0.76543  0.33271  Biso   1.000  Ir
  Ir3      1.0000 0.01250  0.06543  0.28271  Biso   1.000  Ir
  Ir4      1.0000 0.71250  0.46543  0.38271  Biso   1.000  Ir
  Ir5      1.0000 0.06250  0.16543  0.43271  Biso   1.000  Ir
  Ir6      1.0000 0.76250  0.56544  0.53271  Biso   1.000  Ir
  Ir7      1.0000 0.41250  0.86543  0.48271  Biso   1.000  Ir
  Ir8      1.0000 0.11250  0.26543  0.58271  Biso   1.000  Ir
  Ir9      1.0000 0.46250  0.96543  0.63271  Biso   1.000  Ir
  Ir10     1.0000 0.16250  0.36543  0.73271  Biso   1.000  Ir
  Ir11     1.0000 0.81250  0.66543  0.68271  Biso   1.000  Ir
  Ir12     1.0000 0.51250  0.06543  0.78271  Biso   1.000  Ir
  O1       1.0000 0.88379  0.15371  0.24228  Biso   1.000  O
  O2       1.0000 0.58379  0.55371  0.34228  Biso   1.000  O
  O3       1.0000 0.23379  0.50801  0.29229  Biso   1.000  O
  O4       1.0000 0.93379  0.90801  0.39229  Biso   1.000  O
  O5       1.0000 0.79121  0.62285  0.27315  Biso   1.000  O
  O6       1.0000 0.49121  0.02285  0.37315  Biso   1.000  O
  O7       1.0000 0.44121  0.57715  0.22314  Biso   1.000  O
  O8       1.0000 0.14121  0.97715  0.32314  Biso   1.000  O
  O9       1.0000 0.98750  0.66974  0.20771  Biso   1.000  O
  O10      1.0000 0.68750  0.06974  0.30771  Biso   1.000  O
  O11      1.0000 0.33750  0.06114  0.25771  Biso   1.000  O
  O12      1.0000 0.03750  0.46115  0.35771  Biso   1.000  O
  O13      1.0000 0.28379  0.95371  0.44228  Biso   1.000  O
  O14      1.0000 0.98379  0.35371  0.54228  Biso   1.000  O
  O15      1.0000 0.63379  0.30801  0.49229  Biso   1.000  O
  O16      1.0000 0.33379  0.70801  0.59229  Biso   1.000  O
  O17      1.0000 0.19121  0.42285  0.47315  Biso   1.000  O
  O18      1.0000 0.89121  0.82285  0.57315  Biso   1.000  O
  O19      1.0000 0.84121  0.37715  0.42314  Biso   1.000  O
  O20      1.0000 0.54121  0.77715  0.52314  Biso   1.000  O
  O21      1.0000 0.38750  0.46974  0.40771  Biso   1.000  O
  O22      1.0000 0.08750  0.86974  0.50771  Biso   1.000  O
  O23      1.0000 0.73750  0.86114  0.45771  Biso   1.000  O
  O24      1.0000 0.43750  0.26114  0.55771  Biso   1.000  O
  O25      1.0000 0.68379  0.75371  0.64228  Biso   1.000  O
  O26      1.0000 0.38379  0.15371  0.74228  Biso   1.000  O
  O27      1.0000 0.03379  0.10801  0.69229  Biso   1.000  O
  O28      1.0000 0.73379  0.50801  0.79229  Biso   1.000  O
  O29      1.0000 0.59121  0.22285  0.67315  Biso   1.000  O
  O30      1.0000 0.29121  0.62285  0.77315  Biso   1.000  O
  O31      1.0000 0.24121  0.17715  0.62314  Biso   1.000  O
  O32      1.0000 0.94121  0.57715  0.72314  Biso   1.000  O
  O33      1.0000 0.78750  0.26974  0.60771  Biso   1.000  O
  O34      1.0000 0.48750  0.66975  0.70771  Biso   1.000  O
  O35      1.0000 0.13750  0.66115  0.65771  Biso   1.000  O
  O36      1.0000 0.83750  0.06115  0.75771  Biso   1.000  O
