data_image0
_cell_length_a       5.9119
_cell_length_b       17.836
_cell_length_c       33.7844
_cell_angle_alpha    90
_cell_angle_beta     90
_cell_angle_gamma    90

_symmetry_space_group_name_H-M    "P 1"
_symmetry_int_tables_number       1

loop_
  _symmetry_equiv_pos_as_xyz
  'x, y, z'

loop_
  _atom_site_label
  _atom_site_occupancy
  _atom_site_fract_x
  _atom_site_fract_y
  _atom_site_fract_z
  _atom_site_thermal_displace_type
  _atom_site_B_iso_or_equiv
  _atom_site_type_symbol
  Ir1      1.0000 0.75000  0.91647  0.43750  Biso   1.000  Ir
  Ir2      1.0000 0.75000  0.08353  0.43750  Biso   1.000  Ir
  Ir3      1.0000 0.25000  0.58353  0.43750  Biso   1.000  Ir
  Ir4      1.0000 0.25000  0.41647  0.43750  Biso   1.000  Ir
  Ir5      1.0000 0.50000  0.16659  0.37500  Biso   1.000  Ir
  Ir6      1.0000 0.50000  0.83341  0.37500  Biso   1.000  Ir
  Ir7      1.0000 0.50000  0.33341  0.37500  Biso   1.000  Ir
  Ir8      1.0000 0.50000  0.66659  0.37500  Biso   1.000  Ir
  Ir9      1.0000 0.28374  0.09535  0.56592  Biso   1.000  Ir
  Ir10     1.0000 0.27409  0.91970  0.57253  Biso   1.000  Ir
  Ir11     1.0000 0.72125  0.42098  0.57135  Biso   1.000  Ir
  Ir12     1.0000 0.71272  0.59543  0.56732  Biso   1.000  Ir
  Ir13     1.0000 0.01934  0.16933  0.49825  Biso   1.000  Ir
  Ir14     1.0000 0.02385  0.83872  0.50208  Biso   1.000  Ir
  Ir15     1.0000 0.97577  0.33924  0.50152  Biso   1.000  Ir
  Ir16     1.0000 0.97712  0.66837  0.49834  Biso   1.000  Ir
  O1       1.0000 0.71600  0.08500  0.37950  Biso   1.000  O
  O2       1.0000 0.28400  0.91500  0.37050  Biso   1.000  O
  O3       1.0000 0.28400  0.08500  0.37050  Biso   1.000  O
  O4       1.0000 0.71600  0.91500  0.37950  Biso   1.000  O
  O5       1.0000 0.28400  0.41500  0.37950  Biso   1.000  O
  O6       1.0000 0.71600  0.58500  0.37050  Biso   1.000  O
  O7       1.0000 0.71600  0.41500  0.37050  Biso   1.000  O
  O8       1.0000 0.28400  0.58500  0.37950  Biso   1.000  O
  O9       1.0000 0.79774  0.91035  0.49426  Biso   1.000  O
  O10      1.0000 0.78931  0.09551  0.49378  Biso   1.000  O
  O11      1.0000 0.20825  0.59522  0.49414  Biso   1.000  O
  O12      1.0000 0.20458  0.40996  0.49453  Biso   1.000  O
  O13      1.0000 0.71900  0.25000  0.37500  Biso   1.000  O
  O14      1.0000 0.28100  0.75000  0.37500  Biso   1.000  O
  O15      1.0000 0.28100  0.25000  0.37500  Biso   1.000  O
  O16      1.0000 0.71900  0.75000  0.37500  Biso   1.000  O
  O17      1.0000 0.98200  0.00000  0.43225  Biso   1.000  O
  O18      1.0000 0.01800  0.50000  0.43225  Biso   1.000  O
  O19      1.0000 0.51800  0.00000  0.44275  Biso   1.000  O
  O20      1.0000 0.48200  0.50000  0.44275  Biso   1.000  O
  O21      1.0000 0.53000  0.83800  0.43550  Biso   1.000  O
  O22      1.0000 0.53000  0.16200  0.43550  Biso   1.000  O
  O23      1.0000 0.47000  0.66200  0.43550  Biso   1.000  O
  O24      1.0000 0.47000  0.33800  0.43550  Biso   1.000  O
  O25      1.0000 0.97000  0.16200  0.43950  Biso   1.000  O
  O26      1.0000 0.97000  0.83800  0.43950  Biso   1.000  O
  O27      1.0000 0.03000  0.33800  0.43950  Biso   1.000  O
  O28      1.0000 0.03000  0.66200  0.43950  Biso   1.000  O
  O29      1.0000 0.17172  0.90967  0.62077  Biso   1.000  O
  O30      1.0000 0.17625  0.08991  0.61970  Biso   1.000  O
  O31      1.0000 0.81545  0.58981  0.61680  Biso   1.000  O
  O32      1.0000 0.81656  0.41165  0.61978  Biso   1.000  O
  O33      1.0000 0.27074  0.10307  0.50761  Biso   1.000  O
  O34      1.0000 0.27442  0.90050  0.51038  Biso   1.000  O
  O35      1.0000 0.72425  0.40004  0.50832  Biso   1.000  O
  O36      1.0000 0.72395  0.60535  0.50779  Biso   1.000  O
  O37      1.0000 0.20615  0.25657  0.49859  Biso   1.000  O
  O38      1.0000 0.79336  0.75650  0.49795  Biso   1.000  O
  O39      1.0000 0.80024  0.25049  0.49937  Biso   1.000  O
  O40      1.0000 0.19893  0.75058  0.49916  Biso   1.000  O
  O41      1.0000 0.09116  0.00364  0.55687  Biso   1.000  O
  O42      1.0000 0.90483  0.50334  0.55469  Biso   1.000  O
  O43      1.0000 0.48200  0.00050  0.57302  Biso   1.000  O
  O44      1.0000 0.51180  0.50245  0.57052  Biso   1.000  O
  O45      1.0000 0.53434  0.14377  0.57193  Biso   1.000  O
  O46      1.0000 0.50597  0.85589  0.57024  Biso   1.000  O
  O47      1.0000 0.48661  0.35843  0.56779  Biso   1.000  O
  O48      1.0000 0.46119  0.64585  0.57053  Biso   1.000  O
  O49      1.0000 0.01652  0.84955  0.55756  Biso   1.000  O
  O50      1.0000 0.03408  0.15882  0.55687  Biso   1.000  O
  O51      1.0000 0.96674  0.65861  0.55635  Biso   1.000  O
  O52      1.0000 0.97704  0.35095  0.55713  Biso   1.000  O
  H1       1.0000 0.19862  0.03982  0.63107  Biso   1.000  H
