data_image0
_cell_length_a       15.7858
_cell_length_b       15.7858
_cell_length_c       31.1132
_cell_angle_alpha    90
_cell_angle_beta     90
_cell_angle_gamma    90

_symmetry_space_group_name_H-M    "P 1"
_symmetry_int_tables_number       1

loop_
  _symmetry_equiv_pos_as_xyz
  'x, y, z'

loop_
  _atom_site_label
  _atom_site_occupancy
  _atom_site_fract_x
  _atom_site_fract_y
  _atom_site_fract_z
  _atom_site_thermal_displace_type
  _atom_site_B_iso_or_equiv
  _atom_site_type_symbol
  O1       1.0000 0.62264  0.64594  0.00000  Biso   1.000  O
  O2       1.0000 0.37736  0.35406  0.00000  Biso   1.000  O
  O3       1.0000 0.35406  0.62264  0.50000  Biso   1.000  O
  O4       1.0000 0.64594  0.37736  0.50000  Biso   1.000  O
  O5       1.0000 0.37736  0.64594  0.00000  Biso   1.000  O
  O6       1.0000 0.62264  0.35406  0.00000  Biso   1.000  O
  O7       1.0000 0.64594  0.62264  0.50000  Biso   1.000  O
  O8       1.0000 0.35406  0.37736  0.50000  Biso   1.000  O
  O9       1.0000 0.50000  0.63466  0.91768  Biso   1.000  O
  O10      1.0000 0.50000  0.36534  0.91768  Biso   1.000  O
  O11      1.0000 0.36534  0.50000  0.41768  Biso   1.000  O
  O12      1.0000 0.63466  0.50000  0.41768  Biso   1.000  O
  O13      1.0000 0.50000  0.63466  0.08231  Biso   1.000  O
  O14      1.0000 0.50000  0.36534  0.08231  Biso   1.000  O
  O15      1.0000 0.63466  0.50000  0.58232  Biso   1.000  O
  O16      1.0000 0.36534  0.50000  0.58232  Biso   1.000  O
  O17      1.0000 0.50000  0.34635  0.42838  Biso   1.000  O
  O18      1.0000 0.50000  0.65365  0.42838  Biso   1.000  O
  O19      1.0000 0.65365  0.50000  0.92838  Biso   1.000  O
  O20      1.0000 0.34635  0.50000  0.92838  Biso   1.000  O
  O21      1.0000 0.50000  0.34635  0.57162  Biso   1.000  O
  O22      1.0000 0.50000  0.65365  0.57162  Biso   1.000  O
  O23      1.0000 0.34635  0.50000  0.07162  Biso   1.000  O
  O24      1.0000 0.65365  0.50000  0.07162  Biso   1.000  O
  O25      1.0000 0.69454  0.69514  0.90734  Biso   1.000  O
  O26      1.0000 0.30546  0.30486  0.90734  Biso   1.000  O
  O27      1.0000 0.30486  0.69454  0.40734  Biso   1.000  O
  O28      1.0000 0.69514  0.30546  0.40734  Biso   1.000  O
  O29      1.0000 0.30546  0.69514  0.09266  Biso   1.000  O
  O30      1.0000 0.69454  0.30486  0.09266  Biso   1.000  O
  O31      1.0000 0.69514  0.69454  0.59266  Biso   1.000  O
  O32      1.0000 0.30486  0.30546  0.59266  Biso   1.000  O
  O33      1.0000 0.30546  0.30486  0.09266  Biso   1.000  O
  O34      1.0000 0.69454  0.69514  0.09266  Biso   1.000  O
  O35      1.0000 0.69514  0.30546  0.59266  Biso   1.000  O
  O36      1.0000 0.30486  0.69454  0.59266  Biso   1.000  O
  O37      1.0000 0.69454  0.30486  0.90734  Biso   1.000  O
  O38      1.0000 0.30546  0.69514  0.90734  Biso   1.000  O
  O39      1.0000 0.30486  0.30546  0.40734  Biso   1.000  O
  O40      1.0000 0.69514  0.69454  0.40734  Biso   1.000  O
  O41      1.0000 0.66420  0.89739  0.09007  Biso   1.000  O
  O42      1.0000 0.33580  0.10261  0.09007  Biso   1.000  O
  O43      1.0000 0.10261  0.66420  0.59007  Biso   1.000  O
  O44      1.0000 0.89739  0.33580  0.59007  Biso   1.000  O
  O45      1.0000 0.33580  0.89739  0.90993  Biso   1.000  O
  O46      1.0000 0.66420  0.10261  0.90993  Biso   1.000  O
  O47      1.0000 0.89739  0.66420  0.40993  Biso   1.000  O
  O48      1.0000 0.10261  0.33580  0.40993  Biso   1.000  O
  O49      1.0000 0.33580  0.10261  0.90993  Biso   1.000  O
  O50      1.0000 0.66420  0.89739  0.90993  Biso   1.000  O
  O51      1.0000 0.89739  0.33580  0.40993  Biso   1.000  O
  O52      1.0000 0.10261  0.66420  0.40993  Biso   1.000  O
  O53      1.0000 0.66420  0.10261  0.09007  Biso   1.000  O
  O54      1.0000 0.33580  0.89739  0.09007  Biso   1.000  O
  O55      1.0000 0.10261  0.33580  0.59007  Biso   1.000  O
  O56      1.0000 0.89739  0.66420  0.59007  Biso   1.000  O
  O57      1.0000 0.83486  0.82077  0.05138  Biso   1.000  O
  O58      1.0000 0.16514  0.17923  0.05138  Biso   1.000  O
  O59      1.0000 0.17923  0.83486  0.55138  Biso   1.000  O
  O60      1.0000 0.82077  0.16514  0.55138  Biso   1.000  O
  O61      1.0000 0.16514  0.82077  0.94862  Biso   1.000  O
  O62      1.0000 0.83486  0.17923  0.94862  Biso   1.000  O
  O63      1.0000 0.82077  0.83486  0.44862  Biso   1.000  O
  O64      1.0000 0.17923  0.16514  0.44862  Biso   1.000  O
  O65      1.0000 0.16514  0.17923  0.94862  Biso   1.000  O
  O66      1.0000 0.83486  0.82077  0.94862  Biso   1.000  O
  O67      1.0000 0.82077  0.16514  0.44862  Biso   1.000  O
  O68      1.0000 0.17923  0.83486  0.44862  Biso   1.000  O
  O69      1.0000 0.83486  0.17923  0.05138  Biso   1.000  O
  O70      1.0000 0.16514  0.82077  0.05138  Biso   1.000  O
  O71      1.0000 0.17923  0.16514  0.55138  Biso   1.000  O
  O72      1.0000 0.82077  0.83486  0.55138  Biso   1.000  O
  O73      1.0000 0.80405  0.81450  0.15287  Biso   1.000  O
  O74      1.0000 0.19595  0.18550  0.15287  Biso   1.000  O
  O75      1.0000 0.18550  0.80405  0.65287  Biso   1.000  O
  O76      1.0000 0.81450  0.19595  0.65287  Biso   1.000  O
  O77      1.0000 0.19595  0.81450  0.84713  Biso   1.000  O
  O78      1.0000 0.80405  0.18550  0.84713  Biso   1.000  O
  O79      1.0000 0.81450  0.80405  0.34713  Biso   1.000  O
  O80      1.0000 0.18550  0.19595  0.34713  Biso   1.000  O
  O81      1.0000 0.19595  0.18550  0.84713  Biso   1.000  O
  O82      1.0000 0.80405  0.81450  0.84713  Biso   1.000  O
  O83      1.0000 0.81450  0.19595  0.34713  Biso   1.000  O
  O84      1.0000 0.18550  0.80405  0.34713  Biso   1.000  O
  O85      1.0000 0.80405  0.18550  0.15287  Biso   1.000  O
  O86      1.0000 0.19595  0.81450  0.15287  Biso   1.000  O
  O87      1.0000 0.18550  0.19595  0.65287  Biso   1.000  O
  O88      1.0000 0.81450  0.80405  0.65287  Biso   1.000  O
  O89      1.0000 0.00000  0.50000  0.43236  Biso   1.000  O
  O90      1.0000 0.50000  0.00000  0.93236  Biso   1.000  O
  O91      1.0000 0.00000  0.50000  0.56764  Biso   1.000  O
  O92      1.0000 0.50000  0.00000  0.06764  Biso   1.000  O
  O93      1.0000 0.64939  0.00000  0.00000  Biso   1.000  O
  O94      1.0000 0.35061  0.00000  0.00000  Biso   1.000  O
  O95      1.0000 0.00000  0.64939  0.50000  Biso   1.000  O
  O96      1.0000 0.00000  0.35061  0.50000  Biso   1.000  O
  O97      1.0000 0.85279  0.00000  0.00000  Biso   1.000  O
  O98      1.0000 0.14721  0.00000  0.00000  Biso   1.000  O
  O99      1.0000 0.00000  0.85279  0.50000  Biso   1.000  O
  O100     1.0000 0.00000  0.14721  0.50000  Biso   1.000  O
  O101     1.0000 0.86453  0.00000  0.50000  Biso   1.000  O
  O102     1.0000 0.13547  0.00000  0.50000  Biso   1.000  O
  O103     1.0000 0.00000  0.86453  0.00000  Biso   1.000  O
  O104     1.0000 0.00000  0.13547  0.00000  Biso   1.000  O
  O105     1.0000 0.14859  0.14859  0.25000  Biso   1.000  O
  O106     1.0000 0.85141  0.85141  0.25000  Biso   1.000  O
  O107     1.0000 0.85141  0.14859  0.75000  Biso   1.000  O
  O108     1.0000 0.14859  0.85141  0.75000  Biso   1.000  O
  O109     1.0000 0.85141  0.85141  0.75000  Biso   1.000  O
  O110     1.0000 0.14859  0.14859  0.75000  Biso   1.000  O
  O111     1.0000 0.14859  0.85141  0.25000  Biso   1.000  O
  O112     1.0000 0.85141  0.14859  0.25000  Biso   1.000  O
  O113     1.0000 0.00000  0.12841  0.32121  Biso   1.000  O
  O114     1.0000 0.00000  0.87159  0.32121  Biso   1.000  O
  O115     1.0000 0.87159  0.00000  0.82121  Biso   1.000  O
  O116     1.0000 0.12841  0.00000  0.82121  Biso   1.000  O
  O117     1.0000 0.00000  0.12841  0.67879  Biso   1.000  O
  O118     1.0000 0.00000  0.87159  0.67879  Biso   1.000  O
  O119     1.0000 0.12841  0.00000  0.17879  Biso   1.000  O
  O120     1.0000 0.87159  0.00000  0.17879  Biso   1.000  O
  O121     1.0000 0.00000  0.84164  0.82143  Biso   1.000  O
  O122     1.0000 0.00000  0.15836  0.82143  Biso   1.000  O
  O123     1.0000 0.15836  0.00000  0.32143  Biso   1.000  O
  O124     1.0000 0.84164  0.00000  0.32143  Biso   1.000  O
  O125     1.0000 0.00000  0.84164  0.17857  Biso   1.000  O
  O126     1.0000 0.00000  0.15836  0.17857  Biso   1.000  O
  O127     1.0000 0.84164  0.00000  0.67857  Biso   1.000  O
  O128     1.0000 0.15836  0.00000  0.67857  Biso   1.000  O
  Ir1      1.0000 0.74887  0.80709  0.09637  Biso   1.000  Ir
  Ir2      1.0000 0.25113  0.19291  0.09637  Biso   1.000  Ir
  Ir3      1.0000 0.19291  0.74887  0.59637  Biso   1.000  Ir
  Ir4      1.0000 0.80709  0.25113  0.59637  Biso   1.000  Ir
  Ir5      1.0000 0.25113  0.80709  0.90363  Biso   1.000  Ir
  Ir6      1.0000 0.74887  0.19291  0.90363  Biso   1.000  Ir
  Ir7      1.0000 0.80709  0.74887  0.40363  Biso   1.000  Ir
  Ir8      1.0000 0.19291  0.25113  0.40363  Biso   1.000  Ir
  Ir9      1.0000 0.25113  0.19291  0.90363  Biso   1.000  Ir
  Ir10     1.0000 0.74887  0.80709  0.90363  Biso   1.000  Ir
  Ir11     1.0000 0.80709  0.25113  0.40363  Biso   1.000  Ir
  Ir12     1.0000 0.19291  0.74887  0.40363  Biso   1.000  Ir
  Ir13     1.0000 0.74887  0.19291  0.09637  Biso   1.000  Ir
  Ir14     1.0000 0.25113  0.80709  0.09637  Biso   1.000  Ir
  Ir15     1.0000 0.19291  0.25113  0.59637  Biso   1.000  Ir
  Ir16     1.0000 0.80709  0.74887  0.59637  Biso   1.000  Ir
  Ir17     1.0000 0.61770  0.61854  0.93815  Biso   1.000  Ir
  Ir18     1.0000 0.38230  0.38146  0.93815  Biso   1.000  Ir
  Ir19     1.0000 0.38146  0.61770  0.43815  Biso   1.000  Ir
  Ir20     1.0000 0.61854  0.38230  0.43815  Biso   1.000  Ir
  Ir21     1.0000 0.38230  0.61854  0.06185  Biso   1.000  Ir
  Ir22     1.0000 0.61770  0.38146  0.06185  Biso   1.000  Ir
  Ir23     1.0000 0.61854  0.61770  0.56185  Biso   1.000  Ir
  Ir24     1.0000 0.38146  0.38230  0.56185  Biso   1.000  Ir
  Ir25     1.0000 0.38230  0.38146  0.06185  Biso   1.000  Ir
  Ir26     1.0000 0.61770  0.61854  0.06185  Biso   1.000  Ir
  Ir27     1.0000 0.61854  0.38230  0.56185  Biso   1.000  Ir
  Ir28     1.0000 0.38146  0.61770  0.56185  Biso   1.000  Ir
  Ir29     1.0000 0.61770  0.38146  0.93815  Biso   1.000  Ir
  Ir30     1.0000 0.38230  0.61854  0.93815  Biso   1.000  Ir
  Ir31     1.0000 0.38146  0.38230  0.43815  Biso   1.000  Ir
  Ir32     1.0000 0.61854  0.61770  0.43815  Biso   1.000  Ir
  Ir33     1.0000 0.88200  0.87728  0.81001  Biso   1.000  Ir
  Ir34     1.0000 0.11800  0.12272  0.81001  Biso   1.000  Ir
  Ir35     1.0000 0.12272  0.88200  0.31001  Biso   1.000  Ir
  Ir36     1.0000 0.87728  0.11800  0.31001  Biso   1.000  Ir
  Ir37     1.0000 0.11800  0.87728  0.18999  Biso   1.000  Ir
  Ir38     1.0000 0.88200  0.12272  0.18999  Biso   1.000  Ir
  Ir39     1.0000 0.87728  0.88200  0.68999  Biso   1.000  Ir
  Ir40     1.0000 0.12272  0.11800  0.68999  Biso   1.000  Ir
  Ir41     1.0000 0.11800  0.12272  0.18999  Biso   1.000  Ir
  Ir42     1.0000 0.88200  0.87728  0.18999  Biso   1.000  Ir
  Ir43     1.0000 0.87728  0.11800  0.68999  Biso   1.000  Ir
  Ir44     1.0000 0.12272  0.88200  0.68999  Biso   1.000  Ir
  Ir45     1.0000 0.88200  0.12272  0.81001  Biso   1.000  Ir
  Ir46     1.0000 0.11800  0.87728  0.81001  Biso   1.000  Ir
  Ir47     1.0000 0.12272  0.11800  0.31001  Biso   1.000  Ir
  Ir48     1.0000 0.87728  0.88200  0.31001  Biso   1.000  Ir
  Ir49     1.0000 0.00000  0.37837  0.43833  Biso   1.000  Ir
  Ir50     1.0000 0.00000  0.62163  0.43833  Biso   1.000  Ir
  Ir51     1.0000 0.62163  0.00000  0.93833  Biso   1.000  Ir
  Ir52     1.0000 0.37837  0.00000  0.93833  Biso   1.000  Ir
  Ir53     1.0000 0.00000  0.37837  0.56167  Biso   1.000  Ir
  Ir54     1.0000 0.00000  0.62163  0.56167  Biso   1.000  Ir
  Ir55     1.0000 0.37837  0.00000  0.06167  Biso   1.000  Ir
  Ir56     1.0000 0.62163  0.00000  0.06167  Biso   1.000  Ir
  Ir57     1.0000 0.87853  0.87789  0.00000  Biso   1.000  Ir
  Ir58     1.0000 0.12147  0.12211  0.00000  Biso   1.000  Ir
  Ir59     1.0000 0.12211  0.87853  0.50000  Biso   1.000  Ir
  Ir60     1.0000 0.87789  0.12147  0.50000  Biso   1.000  Ir
  Ir61     1.0000 0.12147  0.87789  0.00000  Biso   1.000  Ir
  Ir62     1.0000 0.87853  0.12211  0.00000  Biso   1.000  Ir
  Ir63     1.0000 0.87789  0.87853  0.50000  Biso   1.000  Ir
  Ir64     1.0000 0.12211  0.12147  0.50000  Biso   1.000  Ir
