data_image0
_cell_length_a       12.0876
_cell_length_b       12.0876
_cell_length_c       12.0876
_cell_angle_alpha    90
_cell_angle_beta     90
_cell_angle_gamma    90

_symmetry_space_group_name_H-M    "P 1"
_symmetry_int_tables_number       1

loop_
  _symmetry_equiv_pos_as_xyz
  'x, y, z'

loop_
  _atom_site_label
  _atom_site_occupancy
  _atom_site_fract_x
  _atom_site_fract_y
  _atom_site_fract_z
  _atom_site_thermal_displace_type
  _atom_site_B_iso_or_equiv
  _atom_site_type_symbol
  O1       1.0000 0.75000  0.91887  0.00000  Biso   1.000  O
  O2       1.0000 0.25000  0.58113  0.00000  Biso   1.000  O
  O3       1.0000 0.58113  0.00000  0.25000  Biso   1.000  O
  O4       1.0000 0.91887  0.00000  0.75000  Biso   1.000  O
  O5       1.0000 0.00000  0.75000  0.91887  Biso   1.000  O
  O6       1.0000 0.50000  0.75000  0.08113  Biso   1.000  O
  O7       1.0000 0.00777  0.90107  0.11689  Biso   1.000  O
  O8       1.0000 0.99223  0.59893  0.11689  Biso   1.000  O
  O9       1.0000 0.50777  0.59893  0.88311  Biso   1.000  O
  O10      1.0000 0.99223  0.40107  0.38311  Biso   1.000  O
  O11      1.0000 0.59893  0.11689  0.99223  Biso   1.000  O
  O12      1.0000 0.40107  0.61689  0.50777  Biso   1.000  O
  O13      1.0000 0.90107  0.88311  0.49223  Biso   1.000  O
  O14      1.0000 0.59893  0.88311  0.50777  Biso   1.000  O
  O15      1.0000 0.38311  0.99223  0.40107  Biso   1.000  O
  O16      1.0000 0.88311  0.50777  0.59893  Biso   1.000  O
  O17      1.0000 0.61689  0.49223  0.09893  Biso   1.000  O
  O18      1.0000 0.61689  0.50777  0.40107  Biso   1.000  O
  O19      1.0000 0.75000  0.68099  0.00000  Biso   1.000  O
  O20      1.0000 0.75000  0.31901  0.50000  Biso   1.000  O
  O21      1.0000 0.81901  0.00000  0.25000  Biso   1.000  O
  O22      1.0000 0.18099  0.50000  0.25000  Biso   1.000  O
  O23      1.0000 0.50000  0.25000  0.18099  Biso   1.000  O
  O24      1.0000 0.50000  0.75000  0.31901  Biso   1.000  O
  O25      1.0000 0.25000  0.41887  0.50000  Biso   1.000  O
  O26      1.0000 0.75000  0.08113  0.50000  Biso   1.000  O
  O27      1.0000 0.08113  0.50000  0.75000  Biso   1.000  O
  O28      1.0000 0.41887  0.50000  0.25000  Biso   1.000  O
  O29      1.0000 0.50000  0.25000  0.41887  Biso   1.000  O
  O30      1.0000 0.00000  0.25000  0.58113  Biso   1.000  O
  O31      1.0000 0.50777  0.40107  0.61689  Biso   1.000  O
  O32      1.0000 0.49223  0.09893  0.61689  Biso   1.000  O
  O33      1.0000 0.00777  0.09893  0.38311  Biso   1.000  O
  O34      1.0000 0.49223  0.90107  0.88311  Biso   1.000  O
  O35      1.0000 0.09893  0.61689  0.49223  Biso   1.000  O
  O36      1.0000 0.90107  0.11689  0.00777  Biso   1.000  O
  O37      1.0000 0.40107  0.38311  0.99223  Biso   1.000  O
  O38      1.0000 0.09893  0.38311  0.00777  Biso   1.000  O
  O39      1.0000 0.88311  0.49223  0.90107  Biso   1.000  O
  O40      1.0000 0.38311  0.00777  0.09893  Biso   1.000  O
  O41      1.0000 0.11689  0.99223  0.59893  Biso   1.000  O
  O42      1.0000 0.11689  0.00777  0.90107  Biso   1.000  O
  O43      1.0000 0.25000  0.18099  0.50000  Biso   1.000  O
  O44      1.0000 0.25000  0.81901  0.00000  Biso   1.000  O
  O45      1.0000 0.31901  0.50000  0.75000  Biso   1.000  O
  O46      1.0000 0.68099  0.00000  0.75000  Biso   1.000  O
  O47      1.0000 0.00000  0.75000  0.68099  Biso   1.000  O
  O48      1.0000 0.00000  0.25000  0.81901  Biso   1.000  O
  Ir1      1.0000 0.09713  0.86646  0.98349  Biso   1.000  Ir
  Ir2      1.0000 0.90287  0.63354  0.98349  Biso   1.000  Ir
  Ir3      1.0000 0.59713  0.63354  0.01651  Biso   1.000  Ir
  Ir4      1.0000 0.90287  0.36646  0.51651  Biso   1.000  Ir
  Ir5      1.0000 0.63354  0.98349  0.90287  Biso   1.000  Ir
  Ir6      1.0000 0.86646  0.98349  0.09713  Biso   1.000  Ir
  Ir7      1.0000 0.86646  0.01651  0.40287  Biso   1.000  Ir
  Ir8      1.0000 0.13354  0.51651  0.09713  Biso   1.000  Ir
  Ir9      1.0000 0.51651  0.90287  0.36646  Biso   1.000  Ir
  Ir10     1.0000 0.51651  0.09713  0.13354  Biso   1.000  Ir
  Ir11     1.0000 0.98349  0.90287  0.63354  Biso   1.000  Ir
  Ir12     1.0000 0.48349  0.59713  0.36646  Biso   1.000  Ir
  Ir13     1.0000 0.59713  0.36646  0.48349  Biso   1.000  Ir
  Ir14     1.0000 0.40287  0.13354  0.48349  Biso   1.000  Ir
  Ir15     1.0000 0.09713  0.13354  0.51651  Biso   1.000  Ir
  Ir16     1.0000 0.40287  0.86646  0.01651  Biso   1.000  Ir
  Ir17     1.0000 0.13354  0.48349  0.40287  Biso   1.000  Ir
  Ir18     1.0000 0.36646  0.48349  0.59713  Biso   1.000  Ir
  Ir19     1.0000 0.36646  0.51651  0.90287  Biso   1.000  Ir
  Ir20     1.0000 0.63354  0.01651  0.59713  Biso   1.000  Ir
  Ir21     1.0000 0.01651  0.40287  0.86646  Biso   1.000  Ir
  Ir22     1.0000 0.01651  0.59713  0.63354  Biso   1.000  Ir
  Ir23     1.0000 0.48349  0.40287  0.13354  Biso   1.000  Ir
  Ir24     1.0000 0.98349  0.09713  0.86646  Biso   1.000  Ir
