data_image0
_cell_length_a       3.76879
_cell_length_b       6.9135
_cell_length_c       15.7231
_cell_angle_alpha    90
_cell_angle_beta     90
_cell_angle_gamma    90

_symmetry_space_group_name_H-M    "P 1"
_symmetry_int_tables_number       1

loop_
  _symmetry_equiv_pos_as_xyz
  'x, y, z'

loop_
  _atom_site_label
  _atom_site_occupancy
  _atom_site_fract_x
  _atom_site_fract_y
  _atom_site_fract_z
  _atom_site_thermal_displace_type
  _atom_site_B_iso_or_equiv
  _atom_site_type_symbol
  O1       1.0000 0.00000  0.61700  0.60832  Biso   1.000  O
  O2       1.0000 0.50000  0.38300  0.10832  Biso   1.000  O
  O3       1.0000 0.00000  0.88331  0.14408  Biso   1.000  O
  O4       1.0000 0.50000  0.11669  0.64408  Biso   1.000  O
  O5       1.0000 0.00000  0.27685  0.36334  Biso   1.000  O
  O6       1.0000 0.50000  0.72315  0.86334  Biso   1.000  O
  O7       1.0000 0.00000  0.22465  0.89915  Biso   1.000  O
  O8       1.0000 0.50000  0.77535  0.39915  Biso   1.000  O
  Ir1      1.0000 0.00000  0.61567  0.00039  Biso   1.000  Ir
  Ir2      1.0000 0.50000  0.38433  0.50039  Biso   1.000  Ir
  Ir3      1.0000 0.00000  0.00834  0.50703  Biso   1.000  Ir
  Ir4      1.0000 0.50000  0.99166  0.00703  Biso   1.000  Ir
