data_image0
_cell_length_a       15.9234
_cell_length_b       7.56457
_cell_length_c       13.5774
_cell_angle_alpha    90
_cell_angle_beta     115.168
_cell_angle_gamma    90

_symmetry_space_group_name_H-M    "P 1"
_symmetry_int_tables_number       1

loop_
  _symmetry_equiv_pos_as_xyz
  'x, y, z'

loop_
  _atom_site_label
  _atom_site_occupancy
  _atom_site_fract_x
  _atom_site_fract_y
  _atom_site_fract_z
  _atom_site_thermal_displace_type
  _atom_site_B_iso_or_equiv
  _atom_site_type_symbol
  O1       1.0000 0.75000  0.75000  0.00000  Biso   1.000  O
  O2       1.0000 0.25000  0.75000  0.50000  Biso   1.000  O
  O3       1.0000 0.00000  0.00000  0.00000  Biso   1.000  O
  O4       1.0000 0.00000  0.00000  0.50000  Biso   1.000  O
  O5       1.0000 0.84281  0.62478  0.43529  Biso   1.000  O
  O6       1.0000 0.65719  0.12478  0.06471  Biso   1.000  O
  O7       1.0000 0.15719  0.37522  0.56471  Biso   1.000  O
  O8       1.0000 0.34281  0.87522  0.93529  Biso   1.000  O
  O9       1.0000 0.04655  0.87478  0.34278  Biso   1.000  O
  O10      1.0000 0.95345  0.87478  0.15722  Biso   1.000  O
  O11      1.0000 0.95345  0.12522  0.65722  Biso   1.000  O
  O12      1.0000 0.04655  0.12522  0.84278  Biso   1.000  O
  O13      1.0000 0.76605  0.87550  0.25021  Biso   1.000  O
  O14      1.0000 0.73395  0.37550  0.24979  Biso   1.000  O
  O15      1.0000 0.23395  0.12450  0.74979  Biso   1.000  O
  O16      1.0000 0.26605  0.62450  0.75021  Biso   1.000  O
  O17      1.0000 0.25000  0.25000  0.00000  Biso   1.000  O
  O18      1.0000 0.75000  0.25000  0.50000  Biso   1.000  O
  O19      1.0000 0.50000  0.50000  0.00000  Biso   1.000  O
  O20      1.0000 0.50000  0.50000  0.50000  Biso   1.000  O
  O21      1.0000 0.34281  0.12478  0.43529  Biso   1.000  O
  O22      1.0000 0.15719  0.62478  0.06471  Biso   1.000  O
  O23      1.0000 0.65719  0.87522  0.56471  Biso   1.000  O
  O24      1.0000 0.84281  0.37522  0.93529  Biso   1.000  O
  O25      1.0000 0.54655  0.37478  0.34278  Biso   1.000  O
  O26      1.0000 0.45345  0.37478  0.15722  Biso   1.000  O
  O27      1.0000 0.45345  0.62522  0.65722  Biso   1.000  O
  O28      1.0000 0.54655  0.62522  0.84278  Biso   1.000  O
  O29      1.0000 0.26605  0.37550  0.25021  Biso   1.000  O
  O30      1.0000 0.23395  0.87550  0.24979  Biso   1.000  O
  O31      1.0000 0.73395  0.62450  0.74979  Biso   1.000  O
  O32      1.0000 0.76605  0.12450  0.75021  Biso   1.000  O
  Ir1      1.0000 0.90949  0.84285  0.38192  Biso   1.000  Ir
  Ir2      1.0000 0.59051  0.34285  0.11808  Biso   1.000  Ir
  Ir3      1.0000 0.09051  0.15715  0.61808  Biso   1.000  Ir
  Ir4      1.0000 0.40949  0.65715  0.88192  Biso   1.000  Ir
  Ir5      1.0000 0.72254  0.40714  0.38184  Biso   1.000  Ir
  Ir6      1.0000 0.77746  0.90713  0.11816  Biso   1.000  Ir
  Ir7      1.0000 0.27746  0.59286  0.61816  Biso   1.000  Ir
  Ir8      1.0000 0.22254  0.09286  0.88184  Biso   1.000  Ir
  Ir9      1.0000 0.40949  0.34285  0.38192  Biso   1.000  Ir
  Ir10     1.0000 0.09051  0.84285  0.11808  Biso   1.000  Ir
  Ir11     1.0000 0.59051  0.65715  0.61808  Biso   1.000  Ir
  Ir12     1.0000 0.90949  0.15715  0.88192  Biso   1.000  Ir
  Ir13     1.0000 0.22254  0.90713  0.38184  Biso   1.000  Ir
  Ir14     1.0000 0.27746  0.40714  0.11816  Biso   1.000  Ir
  Ir15     1.0000 0.77746  0.09286  0.61816  Biso   1.000  Ir
  Ir16     1.0000 0.72254  0.59286  0.88184  Biso   1.000  Ir
