data_image0
_cell_length_a       15.9431
_cell_length_b       15.9431
_cell_length_c       6.04894
_cell_angle_alpha    90
_cell_angle_beta     90
_cell_angle_gamma    90

_symmetry_space_group_name_H-M    "P 1"
_symmetry_int_tables_number       1

loop_
  _symmetry_equiv_pos_as_xyz
  'x, y, z'

loop_
  _atom_site_label
  _atom_site_occupancy
  _atom_site_fract_x
  _atom_site_fract_y
  _atom_site_fract_z
  _atom_site_thermal_displace_type
  _atom_site_B_iso_or_equiv
  _atom_site_type_symbol
  O1       1.0000 0.96469  0.09366  0.19110  Biso   1.000  O
  O2       1.0000 0.03531  0.90634  0.19110  Biso   1.000  O
  O3       1.0000 0.09366  0.03531  0.80890  Biso   1.000  O
  O4       1.0000 0.90634  0.96469  0.80890  Biso   1.000  O
  O5       1.0000 0.85740  0.25614  0.04927  Biso   1.000  O
  O6       1.0000 0.14260  0.74386  0.04927  Biso   1.000  O
  O7       1.0000 0.25614  0.14260  0.95073  Biso   1.000  O
  O8       1.0000 0.74386  0.85740  0.95073  Biso   1.000  O
  O9       1.0000 0.92126  0.23770  0.54768  Biso   1.000  O
  O10      1.0000 0.07874  0.76230  0.54768  Biso   1.000  O
  O11      1.0000 0.23770  0.07874  0.45232  Biso   1.000  O
  O12      1.0000 0.76230  0.92126  0.45232  Biso   1.000  O
  O13      1.0000 0.05397  0.27408  0.15752  Biso   1.000  O
  O14      1.0000 0.94603  0.72592  0.15752  Biso   1.000  O
  O15      1.0000 0.27408  0.94603  0.84248  Biso   1.000  O
  O16      1.0000 0.72592  0.05397  0.84248  Biso   1.000  O
  O17      1.0000 0.75653  0.72273  0.34366  Biso   1.000  O
  O18      1.0000 0.24347  0.27727  0.34366  Biso   1.000  O
  O19      1.0000 0.72273  0.24347  0.65634  Biso   1.000  O
  O20      1.0000 0.27727  0.75653  0.65634  Biso   1.000  O
  O21      1.0000 0.58985  0.83195  0.28766  Biso   1.000  O
  O22      1.0000 0.41015  0.16805  0.28766  Biso   1.000  O
  O23      1.0000 0.83195  0.41015  0.71234  Biso   1.000  O
  O24      1.0000 0.16805  0.58985  0.71234  Biso   1.000  O
  O25      1.0000 0.82048  0.57787  0.01194  Biso   1.000  O
  O26      1.0000 0.17952  0.42213  0.01194  Biso   1.000  O
  O27      1.0000 0.57787  0.17952  0.98806  Biso   1.000  O
  O28      1.0000 0.42213  0.82048  0.98806  Biso   1.000  O
  O29      1.0000 0.89032  0.58657  0.51156  Biso   1.000  O
  O30      1.0000 0.10968  0.41343  0.51156  Biso   1.000  O
  O31      1.0000 0.58657  0.10968  0.48844  Biso   1.000  O
  O32      1.0000 0.41343  0.89032  0.48844  Biso   1.000  O
  O33      1.0000 0.00000  0.50000  0.89354  Biso   1.000  O
  O34      1.0000 0.50000  0.00000  0.10646  Biso   1.000  O
  Ir1      1.0000 0.94980  0.21505  0.23624  Biso   1.000  Ir
  Ir2      1.0000 0.05020  0.78495  0.23624  Biso   1.000  Ir
  Ir3      1.0000 0.21505  0.05020  0.76376  Biso   1.000  Ir
  Ir4      1.0000 0.78495  0.94980  0.76376  Biso   1.000  Ir
  Ir5      1.0000 0.71240  0.83363  0.26022  Biso   1.000  Ir
  Ir6      1.0000 0.28760  0.16637  0.26022  Biso   1.000  Ir
  Ir7      1.0000 0.83363  0.28760  0.73978  Biso   1.000  Ir
  Ir8      1.0000 0.16637  0.71240  0.73978  Biso   1.000  Ir
  Ir9      1.0000 0.85310  0.65283  0.25728  Biso   1.000  Ir
  Ir10     1.0000 0.14690  0.34717  0.25728  Biso   1.000  Ir
  Ir11     1.0000 0.65283  0.14690  0.74272  Biso   1.000  Ir
  Ir12     1.0000 0.34717  0.85310  0.74272  Biso   1.000  Ir
  Ir13     1.0000 0.88483  0.51848  0.78115  Biso   1.000  Ir
  Ir14     1.0000 0.11517  0.48152  0.78115  Biso   1.000  Ir
  Ir15     1.0000 0.51848  0.11517  0.21885  Biso   1.000  Ir
  Ir16     1.0000 0.48152  0.88483  0.21885  Biso   1.000  Ir
  Ir17     1.0000 0.00000  0.00000  0.00000  Biso   1.000  Ir
