data_image0
_cell_length_a       11.8203
_cell_length_b       14.9106
_cell_length_c       27.8306
_cell_angle_alpha    90
_cell_angle_beta     90
_cell_angle_gamma    90

_symmetry_space_group_name_H-M    "P 1"
_symmetry_int_tables_number       1

loop_
  _symmetry_equiv_pos_as_xyz
  'x, y, z'

loop_
  _atom_site_label
  _atom_site_occupancy
  _atom_site_fract_x
  _atom_site_fract_y
  _atom_site_fract_z
  _atom_site_thermal_displace_type
  _atom_site_B_iso_or_equiv
  _atom_site_type_symbol
  O1       1.0000 0.20541  0.25000  0.34965  Biso   1.000  O
  O2       1.0000 0.29459  0.75000  0.84965  Biso   1.000  O
  O3       1.0000 0.79459  0.75000  0.65035  Biso   1.000  O
  O4       1.0000 0.70541  0.25000  0.15035  Biso   1.000  O
  O5       1.0000 0.24923  0.91913  0.91909  Biso   1.000  O
  O6       1.0000 0.25077  0.08087  0.41909  Biso   1.000  O
  O7       1.0000 0.75077  0.41913  0.08092  Biso   1.000  O
  O8       1.0000 0.74923  0.58087  0.58092  Biso   1.000  O
  O9       1.0000 0.75077  0.08087  0.08092  Biso   1.000  O
  O10      1.0000 0.74923  0.91913  0.58092  Biso   1.000  O
  O11      1.0000 0.24923  0.58087  0.91909  Biso   1.000  O
  O12      1.0000 0.25077  0.41913  0.41909  Biso   1.000  O
  O13      1.0000 0.49728  0.88635  0.87680  Biso   1.000  O
  O14      1.0000 0.00272  0.11365  0.37680  Biso   1.000  O
  O15      1.0000 0.50272  0.38635  0.12320  Biso   1.000  O
  O16      1.0000 0.99728  0.61365  0.62320  Biso   1.000  O
  O17      1.0000 0.50272  0.11365  0.12320  Biso   1.000  O
  O18      1.0000 0.99728  0.88635  0.62320  Biso   1.000  O
  O19      1.0000 0.49728  0.61365  0.87680  Biso   1.000  O
  O20      1.0000 0.00272  0.38635  0.37680  Biso   1.000  O
  O21      1.0000 0.29688  0.94887  0.80681  Biso   1.000  O
  O22      1.0000 0.20312  0.05113  0.30681  Biso   1.000  O
  O23      1.0000 0.70312  0.44887  0.19319  Biso   1.000  O
  O24      1.0000 0.79688  0.55113  0.69319  Biso   1.000  O
  O25      1.0000 0.70312  0.05113  0.19319  Biso   1.000  O
  O26      1.0000 0.79688  0.94887  0.69319  Biso   1.000  O
  O27      1.0000 0.29688  0.55113  0.80681  Biso   1.000  O
  O28      1.0000 0.20312  0.44887  0.30681  Biso   1.000  O
  O29      1.0000 0.81683  0.25000  0.01444  Biso   1.000  O
  O30      1.0000 0.68317  0.75000  0.51444  Biso   1.000  O
  O31      1.0000 0.18317  0.75000  0.98556  Biso   1.000  O
  O32      1.0000 0.31683  0.25000  0.48556  Biso   1.000  O
  O33      1.0000 0.68624  0.94778  0.47020  Biso   1.000  O
  O34      1.0000 0.81376  0.05222  0.97020  Biso   1.000  O
  O35      1.0000 0.31376  0.44778  0.52980  Biso   1.000  O
  O36      1.0000 0.18624  0.55222  0.02980  Biso   1.000  O
  O37      1.0000 0.31376  0.05222  0.52980  Biso   1.000  O
  O38      1.0000 0.18624  0.94778  0.02980  Biso   1.000  O
  O39      1.0000 0.68624  0.55222  0.47020  Biso   1.000  O
  O40      1.0000 0.81376  0.44778  0.97020  Biso   1.000  O
  O41      1.0000 0.49167  0.89158  0.54584  Biso   1.000  O
  O42      1.0000 0.00833  0.10842  0.04584  Biso   1.000  O
  O43      1.0000 0.50833  0.39158  0.45416  Biso   1.000  O
  O44      1.0000 0.99167  0.60842  0.95416  Biso   1.000  O
  O45      1.0000 0.50833  0.10842  0.45416  Biso   1.000  O
  O46      1.0000 0.99167  0.89158  0.95416  Biso   1.000  O
  O47      1.0000 0.49167  0.60842  0.54584  Biso   1.000  O
  O48      1.0000 0.00833  0.39158  0.04584  Biso   1.000  O
  O49      1.0000 0.96326  0.45620  0.87353  Biso   1.000  O
  O50      1.0000 0.53674  0.54380  0.37353  Biso   1.000  O
  O51      1.0000 0.03674  0.95620  0.12647  Biso   1.000  O
  O52      1.0000 0.46326  0.04380  0.62647  Biso   1.000  O
  O53      1.0000 0.03674  0.54380  0.12647  Biso   1.000  O
  O54      1.0000 0.46326  0.45620  0.62647  Biso   1.000  O
  O55      1.0000 0.96326  0.04380  0.87353  Biso   1.000  O
  O56      1.0000 0.53674  0.95620  0.37353  Biso   1.000  O
  O57      1.0000 0.76519  0.60069  0.89219  Biso   1.000  O
  O58      1.0000 0.73481  0.39931  0.39219  Biso   1.000  O
  O59      1.0000 0.23481  0.10069  0.10781  Biso   1.000  O
  O60      1.0000 0.26519  0.89931  0.60781  Biso   1.000  O
  O61      1.0000 0.23481  0.39931  0.10781  Biso   1.000  O
  O62      1.0000 0.26519  0.60069  0.60781  Biso   1.000  O
  O63      1.0000 0.76519  0.89931  0.89219  Biso   1.000  O
  O64      1.0000 0.73481  0.10069  0.39219  Biso   1.000  O
  O65      1.0000 0.33642  0.25000  0.17874  Biso   1.000  O
  O66      1.0000 0.16358  0.75000  0.67874  Biso   1.000  O
  O67      1.0000 0.66358  0.75000  0.82126  Biso   1.000  O
  O68      1.0000 0.83642  0.25000  0.32126  Biso   1.000  O
  O69      1.0000 0.15419  0.54266  0.70897  Biso   1.000  O
  O70      1.0000 0.34581  0.45734  0.20897  Biso   1.000  O
  O71      1.0000 0.84581  0.04266  0.29103  Biso   1.000  O
  O72      1.0000 0.65419  0.95734  0.79103  Biso   1.000  O
  O73      1.0000 0.84581  0.45734  0.29103  Biso   1.000  O
  O74      1.0000 0.65419  0.54266  0.79103  Biso   1.000  O
  O75      1.0000 0.15419  0.95734  0.70897  Biso   1.000  O
  O76      1.0000 0.34581  0.04266  0.20897  Biso   1.000  O
  O77      1.0000 0.95860  0.25000  0.84102  Biso   1.000  O
  O78      1.0000 0.54140  0.75000  0.34102  Biso   1.000  O
  O79      1.0000 0.04140  0.75000  0.15898  Biso   1.000  O
  O80      1.0000 0.45860  0.25000  0.65898  Biso   1.000  O
  O81      1.0000 0.35399  0.40065  0.72841  Biso   1.000  O
  O82      1.0000 0.14601  0.59935  0.22841  Biso   1.000  O
  O83      1.0000 0.64601  0.90065  0.27159  Biso   1.000  O
  O84      1.0000 0.85399  0.09935  0.77159  Biso   1.000  O
  O85      1.0000 0.64601  0.59935  0.27159  Biso   1.000  O
  O86      1.0000 0.85399  0.40065  0.77159  Biso   1.000  O
  O87      1.0000 0.35399  0.09935  0.72841  Biso   1.000  O
  O88      1.0000 0.14601  0.90065  0.22841  Biso   1.000  O
  O89      1.0000 0.12358  0.38871  0.78798  Biso   1.000  O
  O90      1.0000 0.37642  0.61129  0.28798  Biso   1.000  O
  O91      1.0000 0.87642  0.88871  0.21202  Biso   1.000  O
  O92      1.0000 0.62358  0.11129  0.71202  Biso   1.000  O
  O93      1.0000 0.87642  0.61129  0.21202  Biso   1.000  O
  O94      1.0000 0.62358  0.38871  0.71202  Biso   1.000  O
  O95      1.0000 0.12358  0.11129  0.78798  Biso   1.000  O
  O96      1.0000 0.37642  0.88871  0.28798  Biso   1.000  O
  Ir1      1.0000 0.33421  0.87632  0.86292  Biso   1.000  Ir
  Ir2      1.0000 0.16579  0.12368  0.36292  Biso   1.000  Ir
  Ir3      1.0000 0.66579  0.37632  0.13708  Biso   1.000  Ir
  Ir4      1.0000 0.83421  0.62368  0.63708  Biso   1.000  Ir
  Ir5      1.0000 0.66579  0.12368  0.13708  Biso   1.000  Ir
  Ir6      1.0000 0.83421  0.87632  0.63708  Biso   1.000  Ir
  Ir7      1.0000 0.33421  0.62368  0.86292  Biso   1.000  Ir
  Ir8      1.0000 0.16579  0.37632  0.36292  Biso   1.000  Ir
  Ir9      1.0000 0.65218  0.87700  0.52793  Biso   1.000  Ir
  Ir10     1.0000 0.84782  0.12301  0.02793  Biso   1.000  Ir
  Ir11     1.0000 0.34782  0.37700  0.47207  Biso   1.000  Ir
  Ir12     1.0000 0.15218  0.62300  0.97207  Biso   1.000  Ir
  Ir13     1.0000 0.34782  0.12301  0.47207  Biso   1.000  Ir
  Ir14     1.0000 0.15218  0.87700  0.97207  Biso   1.000  Ir
  Ir15     1.0000 0.65218  0.62300  0.52793  Biso   1.000  Ir
  Ir16     1.0000 0.84782  0.37700  0.02793  Biso   1.000  Ir
  Ir17     1.0000 0.88338  0.52773  0.92228  Biso   1.000  Ir
  Ir18     1.0000 0.61662  0.47227  0.42228  Biso   1.000  Ir
  Ir19     1.0000 0.11662  0.02773  0.07772  Biso   1.000  Ir
  Ir20     1.0000 0.38338  0.97227  0.57772  Biso   1.000  Ir
  Ir21     1.0000 0.11662  0.47227  0.07772  Biso   1.000  Ir
  Ir22     1.0000 0.38338  0.52773  0.57772  Biso   1.000  Ir
  Ir23     1.0000 0.88338  0.97227  0.92228  Biso   1.000  Ir
  Ir24     1.0000 0.61662  0.02773  0.42228  Biso   1.000  Ir
  Ir25     1.0000 0.14577  0.87390  0.65473  Biso   1.000  Ir
  Ir26     1.0000 0.35423  0.12610  0.15473  Biso   1.000  Ir
  Ir27     1.0000 0.85423  0.37390  0.34527  Biso   1.000  Ir
  Ir28     1.0000 0.64577  0.62610  0.84527  Biso   1.000  Ir
  Ir29     1.0000 0.85423  0.12610  0.34527  Biso   1.000  Ir
  Ir30     1.0000 0.64577  0.87390  0.84527  Biso   1.000  Ir
  Ir31     1.0000 0.14577  0.62610  0.65473  Biso   1.000  Ir
  Ir32     1.0000 0.35423  0.37390  0.15473  Biso   1.000  Ir
  Ir33     1.0000 0.97432  0.12546  0.81840  Biso   1.000  Ir
  Ir34     1.0000 0.52568  0.87454  0.31840  Biso   1.000  Ir
  Ir35     1.0000 0.02568  0.62546  0.18160  Biso   1.000  Ir
  Ir36     1.0000 0.47432  0.37454  0.68160  Biso   1.000  Ir
  Ir37     1.0000 0.02568  0.87454  0.18160  Biso   1.000  Ir
  Ir38     1.0000 0.47432  0.12546  0.68160  Biso   1.000  Ir
  Ir39     1.0000 0.97432  0.37454  0.81840  Biso   1.000  Ir
  Ir40     1.0000 0.52568  0.62546  0.31840  Biso   1.000  Ir
  Ir41     1.0000 0.23261  0.47091  0.75809  Biso   1.000  Ir
  Ir42     1.0000 0.26739  0.52909  0.25809  Biso   1.000  Ir
  Ir43     1.0000 0.76739  0.97091  0.24191  Biso   1.000  Ir
  Ir44     1.0000 0.73261  0.02909  0.74191  Biso   1.000  Ir
  Ir45     1.0000 0.76739  0.52909  0.24191  Biso   1.000  Ir
  Ir46     1.0000 0.73261  0.47091  0.74191  Biso   1.000  Ir
  Ir47     1.0000 0.23261  0.02909  0.75809  Biso   1.000  Ir
  Ir48     1.0000 0.26739  0.97091  0.25809  Biso   1.000  Ir
