data_image0
_cell_length_a       16.7144
_cell_length_b       8.88382
_cell_length_c       4.44904
_cell_angle_alpha    90
_cell_angle_beta     90
_cell_angle_gamma    90

_symmetry_space_group_name_H-M    "P 1"
_symmetry_int_tables_number       1

loop_
  _symmetry_equiv_pos_as_xyz
  'x, y, z'

loop_
  _atom_site_label
  _atom_site_occupancy
  _atom_site_fract_x
  _atom_site_fract_y
  _atom_site_fract_z
  _atom_site_thermal_displace_type
  _atom_site_B_iso_or_equiv
  _atom_site_type_symbol
  Ir1      1.0000 0.00000  0.00000  0.96728  Biso   1.000  Ir
  Ir2      1.0000 0.50000  0.00000  0.96728  Biso   1.000  Ir
  Ir3      1.0000 0.62589  0.66533  0.49151  Biso   1.000  Ir
  Ir4      1.0000 0.37411  0.33467  0.49151  Biso   1.000  Ir
  Ir5      1.0000 0.12589  0.33467  0.49151  Biso   1.000  Ir
  Ir6      1.0000 0.87411  0.66533  0.49151  Biso   1.000  Ir
  Ir7      1.0000 0.25000  0.67651  0.00049  Biso   1.000  Ir
  Ir8      1.0000 0.75000  0.32349  0.00049  Biso   1.000  Ir
  O1       1.0000 0.50614  0.69414  0.91635  Biso   1.000  O
  O2       1.0000 0.49386  0.30586  0.91635  Biso   1.000  O
  O3       1.0000 0.00614  0.30586  0.91635  Biso   1.000  O
  O4       1.0000 0.99386  0.69414  0.91635  Biso   1.000  O
  O5       1.0000 0.12964  0.64251  0.51058  Biso   1.000  O
  O6       1.0000 0.87036  0.35749  0.51058  Biso   1.000  O
  O7       1.0000 0.62964  0.35749  0.51058  Biso   1.000  O
  O8       1.0000 0.37036  0.64251  0.51058  Biso   1.000  O
  O9       1.0000 0.61903  0.97097  0.45904  Biso   1.000  O
  O10      1.0000 0.38097  0.02903  0.45904  Biso   1.000  O
  O11      1.0000 0.11903  0.02903  0.45904  Biso   1.000  O
  O12      1.0000 0.88097  0.97097  0.45904  Biso   1.000  O
  O13      1.0000 0.25000  0.37379  0.09076  Biso   1.000  O
  O14      1.0000 0.75000  0.62621  0.09076  Biso   1.000  O
  O15      1.0000 0.25000  0.98284  0.01651  Biso   1.000  O
  O16      1.0000 0.75000  0.01716  0.01651  Biso   1.000  O
