data_image0
_cell_length_a       7.80159
_cell_length_b       7.26819
_cell_length_c       4.53089
_cell_angle_alpha    90
_cell_angle_beta     90
_cell_angle_gamma    90

_symmetry_space_group_name_H-M    "P 1"
_symmetry_int_tables_number       1

loop_
  _symmetry_equiv_pos_as_xyz
  'x, y, z'

loop_
  _atom_site_label
  _atom_site_occupancy
  _atom_site_fract_x
  _atom_site_fract_y
  _atom_site_fract_z
  _atom_site_thermal_displace_type
  _atom_site_B_iso_or_equiv
  _atom_site_type_symbol
  O1       1.0000 0.25000  0.61280  0.25000  Biso   1.000  O
  O2       1.0000 0.25000  0.38720  0.75000  Biso   1.000  O
  O3       1.0000 0.75000  0.38720  0.75000  Biso   1.000  O
  O4       1.0000 0.75000  0.61280  0.25000  Biso   1.000  O
  O5       1.0000 0.00000  0.89912  0.25068  Biso   1.000  O
  O6       1.0000 0.50000  0.10088  0.75068  Biso   1.000  O
  O7       1.0000 0.50000  0.89912  0.24932  Biso   1.000  O
  O8       1.0000 0.00000  0.10088  0.74932  Biso   1.000  O
  Ir1      1.0000 0.00000  0.70396  0.75288  Biso   1.000  Ir
  Ir2      1.0000 0.50000  0.29604  0.25288  Biso   1.000  Ir
  Ir3      1.0000 0.50000  0.70396  0.74712  Biso   1.000  Ir
  Ir4      1.0000 0.00000  0.29604  0.24712  Biso   1.000  Ir
