data_image0
_cell_length_a       12.8337
_cell_length_b       12.8337
_cell_length_c       21.3627
_cell_angle_alpha    90
_cell_angle_beta     90
_cell_angle_gamma    90

_symmetry_space_group_name_H-M    "P 1"
_symmetry_int_tables_number       1

loop_
  _symmetry_equiv_pos_as_xyz
  'x, y, z'

loop_
  _atom_site_label
  _atom_site_occupancy
  _atom_site_fract_x
  _atom_site_fract_y
  _atom_site_fract_z
  _atom_site_thermal_displace_type
  _atom_site_B_iso_or_equiv
  _atom_site_type_symbol
  Ir1      1.0000 0.58474  0.87677  0.31378  Biso   1.000  Ir
  Ir2      1.0000 0.41526  0.12323  0.31378  Biso   1.000  Ir
  Ir3      1.0000 0.62323  0.58474  0.06378  Biso   1.000  Ir
  Ir4      1.0000 0.37677  0.41526  0.06378  Biso   1.000  Ir
  Ir5      1.0000 0.41526  0.37677  0.43622  Biso   1.000  Ir
  Ir6      1.0000 0.58474  0.62323  0.43622  Biso   1.000  Ir
  Ir7      1.0000 0.87677  0.58474  0.18622  Biso   1.000  Ir
  Ir8      1.0000 0.12323  0.41526  0.18622  Biso   1.000  Ir
  Ir9      1.0000 0.91526  0.12323  0.43622  Biso   1.000  Ir
  Ir10     1.0000 0.08474  0.87677  0.43622  Biso   1.000  Ir
  Ir11     1.0000 0.37677  0.91526  0.18622  Biso   1.000  Ir
  Ir12     1.0000 0.62323  0.08474  0.18622  Biso   1.000  Ir
  Ir13     1.0000 0.08474  0.62323  0.31378  Biso   1.000  Ir
  Ir14     1.0000 0.91526  0.37677  0.31378  Biso   1.000  Ir
  Ir15     1.0000 0.12323  0.91526  0.06378  Biso   1.000  Ir
  Ir16     1.0000 0.87677  0.08474  0.06378  Biso   1.000  Ir
  Ir17     1.0000 0.08474  0.37677  0.81378  Biso   1.000  Ir
  Ir18     1.0000 0.91526  0.62323  0.81378  Biso   1.000  Ir
  Ir19     1.0000 0.12323  0.08474  0.56378  Biso   1.000  Ir
  Ir20     1.0000 0.87677  0.91526  0.56378  Biso   1.000  Ir
  Ir21     1.0000 0.91526  0.87677  0.93622  Biso   1.000  Ir
  Ir22     1.0000 0.08474  0.12323  0.93622  Biso   1.000  Ir
  Ir23     1.0000 0.37677  0.08474  0.68622  Biso   1.000  Ir
  Ir24     1.0000 0.62323  0.91526  0.68622  Biso   1.000  Ir
  Ir25     1.0000 0.41526  0.62323  0.93622  Biso   1.000  Ir
  Ir26     1.0000 0.58474  0.37677  0.93622  Biso   1.000  Ir
  Ir27     1.0000 0.87677  0.41526  0.68622  Biso   1.000  Ir
  Ir28     1.0000 0.12323  0.58474  0.68622  Biso   1.000  Ir
  Ir29     1.0000 0.58474  0.12323  0.81378  Biso   1.000  Ir
  Ir30     1.0000 0.41526  0.87677  0.81378  Biso   1.000  Ir
  Ir31     1.0000 0.62323  0.41526  0.56378  Biso   1.000  Ir
  Ir32     1.0000 0.37677  0.58474  0.56378  Biso   1.000  Ir
  O1       1.0000 0.78270  0.03718  0.49904  Biso   1.000  O
  O2       1.0000 0.21730  0.96282  0.49904  Biso   1.000  O
  O3       1.0000 0.46282  0.78270  0.24904  Biso   1.000  O
  O4       1.0000 0.53718  0.21730  0.24904  Biso   1.000  O
  O5       1.0000 0.21730  0.53718  0.25096  Biso   1.000  O
  O6       1.0000 0.78270  0.46282  0.25096  Biso   1.000  O
  O7       1.0000 0.03718  0.78270  0.00096  Biso   1.000  O
  O8       1.0000 0.96282  0.21730  0.00096  Biso   1.000  O
  O9       1.0000 0.71730  0.96282  0.25096  Biso   1.000  O
  O10      1.0000 0.28270  0.03718  0.25096  Biso   1.000  O
  O11      1.0000 0.53718  0.71730  0.00096  Biso   1.000  O
  O12      1.0000 0.46282  0.28270  0.00096  Biso   1.000  O
  O13      1.0000 0.28270  0.46282  0.49904  Biso   1.000  O
  O14      1.0000 0.71730  0.53718  0.49904  Biso   1.000  O
  O15      1.0000 0.96282  0.71730  0.24904  Biso   1.000  O
  O16      1.0000 0.03718  0.28270  0.24904  Biso   1.000  O
  O17      1.0000 0.25000  0.81442  0.12500  Biso   1.000  O
  O18      1.0000 0.75000  0.18558  0.12500  Biso   1.000  O
  O19      1.0000 0.18558  0.75000  0.37500  Biso   1.000  O
  O20      1.0000 0.81442  0.25000  0.37500  Biso   1.000  O
  O21      1.0000 0.75000  0.68558  0.12500  Biso   1.000  O
  O22      1.0000 0.25000  0.31442  0.12500  Biso   1.000  O
  O23      1.0000 0.31442  0.25000  0.37500  Biso   1.000  O
  O24      1.0000 0.68558  0.75000  0.37500  Biso   1.000  O
  O25      1.0000 0.00000  0.00000  0.13331  Biso   1.000  O
  O26      1.0000 0.00000  0.50000  0.38331  Biso   1.000  O
  O27      1.0000 0.50000  0.00000  0.11669  Biso   1.000  O
  O28      1.0000 0.00000  0.00000  0.36669  Biso   1.000  O
  O29      1.0000 0.00000  0.50000  0.11669  Biso   1.000  O
  O30      1.0000 0.50000  0.50000  0.36669  Biso   1.000  O
  O31      1.0000 0.50000  0.50000  0.13331  Biso   1.000  O
  O32      1.0000 0.50000  0.00000  0.38331  Biso   1.000  O
  O33      1.0000 0.28270  0.53718  0.99903  Biso   1.000  O
  O34      1.0000 0.71730  0.46282  0.99903  Biso   1.000  O
  O35      1.0000 0.96282  0.28270  0.74904  Biso   1.000  O
  O36      1.0000 0.03718  0.71730  0.74904  Biso   1.000  O
  O37      1.0000 0.71730  0.03718  0.75097  Biso   1.000  O
  O38      1.0000 0.28270  0.96282  0.75097  Biso   1.000  O
  O39      1.0000 0.53718  0.28270  0.50096  Biso   1.000  O
  O40      1.0000 0.46282  0.71730  0.50096  Biso   1.000  O
  O41      1.0000 0.21730  0.46282  0.75097  Biso   1.000  O
  O42      1.0000 0.78270  0.53718  0.75097  Biso   1.000  O
  O43      1.0000 0.03718  0.21730  0.50096  Biso   1.000  O
  O44      1.0000 0.96282  0.78270  0.50096  Biso   1.000  O
  O45      1.0000 0.78270  0.96282  0.99903  Biso   1.000  O
  O46      1.0000 0.21730  0.03718  0.99903  Biso   1.000  O
  O47      1.0000 0.46282  0.21730  0.74904  Biso   1.000  O
  O48      1.0000 0.53718  0.78270  0.74904  Biso   1.000  O
  O49      1.0000 0.75000  0.31442  0.62500  Biso   1.000  O
  O50      1.0000 0.25000  0.68558  0.62500  Biso   1.000  O
  O51      1.0000 0.68558  0.25000  0.87500  Biso   1.000  O
  O52      1.0000 0.31442  0.75000  0.87500  Biso   1.000  O
  O53      1.0000 0.25000  0.18558  0.62500  Biso   1.000  O
  O54      1.0000 0.75000  0.81442  0.62500  Biso   1.000  O
  O55      1.0000 0.81442  0.75000  0.87500  Biso   1.000  O
  O56      1.0000 0.18558  0.25000  0.87500  Biso   1.000  O
  O57      1.0000 0.50000  0.50000  0.63331  Biso   1.000  O
  O58      1.0000 0.50000  0.00000  0.88331  Biso   1.000  O
  O59      1.0000 0.00000  0.50000  0.61669  Biso   1.000  O
  O60      1.0000 0.50000  0.50000  0.86669  Biso   1.000  O
  O61      1.0000 0.50000  0.00000  0.61669  Biso   1.000  O
  O62      1.0000 0.00000  0.00000  0.86669  Biso   1.000  O
  O63      1.0000 0.00000  0.00000  0.63331  Biso   1.000  O
  O64      1.0000 0.00000  0.50000  0.88331  Biso   1.000  O
