data_image0
_cell_length_a       17.9666
_cell_length_b       10.5476
_cell_length_c       23.1726
_cell_angle_alpha    90
_cell_angle_beta     90
_cell_angle_gamma    90

_symmetry_space_group_name_H-M    "P 1"
_symmetry_int_tables_number       1

loop_
  _symmetry_equiv_pos_as_xyz
  'x, y, z'

loop_
  _atom_site_label
  _atom_site_occupancy
  _atom_site_fract_x
  _atom_site_fract_y
  _atom_site_fract_z
  _atom_site_thermal_displace_type
  _atom_site_B_iso_or_equiv
  _atom_site_type_symbol
  O1       1.0000 0.94010  0.77185  0.59096  Biso   1.000  O
  O2       1.0000 0.55990  0.72815  0.09097  Biso   1.000  O
  O3       1.0000 0.05990  0.77185  0.90904  Biso   1.000  O
  O4       1.0000 0.44010  0.72815  0.40904  Biso   1.000  O
  O5       1.0000 0.05990  0.22815  0.40904  Biso   1.000  O
  O6       1.0000 0.44010  0.27185  0.90904  Biso   1.000  O
  O7       1.0000 0.94010  0.22815  0.09097  Biso   1.000  O
  O8       1.0000 0.55990  0.27185  0.59096  Biso   1.000  O
  O9       1.0000 0.09919  0.89300  0.55633  Biso   1.000  O
  O10      1.0000 0.40081  0.60700  0.05633  Biso   1.000  O
  O11      1.0000 0.90081  0.89300  0.94367  Biso   1.000  O
  O12      1.0000 0.59919  0.60700  0.44367  Biso   1.000  O
  O13      1.0000 0.90081  0.10700  0.44367  Biso   1.000  O
  O14      1.0000 0.59919  0.39300  0.94367  Biso   1.000  O
  O15      1.0000 0.09919  0.10700  0.05633  Biso   1.000  O
  O16      1.0000 0.40081  0.39300  0.55633  Biso   1.000  O
  O17      1.0000 0.21352  0.99358  0.46039  Biso   1.000  O
  O18      1.0000 0.28648  0.50642  0.96039  Biso   1.000  O
  O19      1.0000 0.78648  0.99358  0.03961  Biso   1.000  O
  O20      1.0000 0.71352  0.50642  0.53961  Biso   1.000  O
  O21      1.0000 0.78648  0.00642  0.53961  Biso   1.000  O
  O22      1.0000 0.71352  0.49358  0.03961  Biso   1.000  O
  O23      1.0000 0.21352  0.00642  0.96039  Biso   1.000  O
  O24      1.0000 0.28648  0.49358  0.46039  Biso   1.000  O
  O25      1.0000 0.22341  0.19246  0.35392  Biso   1.000  O
  O26      1.0000 0.27659  0.30754  0.85392  Biso   1.000  O
  O27      1.0000 0.77659  0.19246  0.14608  Biso   1.000  O
  O28      1.0000 0.72341  0.30754  0.64608  Biso   1.000  O
  O29      1.0000 0.77659  0.80754  0.64608  Biso   1.000  O
  O30      1.0000 0.72341  0.69246  0.14608  Biso   1.000  O
  O31      1.0000 0.22341  0.80754  0.85392  Biso   1.000  O
  O32      1.0000 0.27659  0.69246  0.35392  Biso   1.000  O
  O33      1.0000 0.91530  0.72023  0.72565  Biso   1.000  O
  O34      1.0000 0.58470  0.77977  0.22565  Biso   1.000  O
  O35      1.0000 0.08470  0.72023  0.77435  Biso   1.000  O
  O36      1.0000 0.41530  0.77977  0.27435  Biso   1.000  O
  O37      1.0000 0.08470  0.27977  0.27435  Biso   1.000  O
  O38      1.0000 0.41530  0.22023  0.77435  Biso   1.000  O
  O39      1.0000 0.91530  0.27977  0.22565  Biso   1.000  O
  O40      1.0000 0.58470  0.22023  0.72565  Biso   1.000  O
  O41      1.0000 0.03121  0.93555  0.68430  Biso   1.000  O
  O42      1.0000 0.46879  0.56445  0.18430  Biso   1.000  O
  O43      1.0000 0.96879  0.93555  0.81570  Biso   1.000  O
  O44      1.0000 0.53121  0.56445  0.31570  Biso   1.000  O
  O45      1.0000 0.96879  0.06445  0.31570  Biso   1.000  O
  O46      1.0000 0.53121  0.43555  0.81570  Biso   1.000  O
  O47      1.0000 0.03121  0.06445  0.18430  Biso   1.000  O
  O48      1.0000 0.46879  0.43555  0.68430  Biso   1.000  O
  O49      1.0000 0.04387  0.92541  0.42476  Biso   1.000  O
  O50      1.0000 0.45613  0.57459  0.92476  Biso   1.000  O
  O51      1.0000 0.95613  0.92541  0.07524  Biso   1.000  O
  O52      1.0000 0.54387  0.57459  0.57524  Biso   1.000  O
  O53      1.0000 0.95613  0.07459  0.57524  Biso   1.000  O
  O54      1.0000 0.54387  0.42541  0.07524  Biso   1.000  O
  O55      1.0000 0.04387  0.07459  0.92476  Biso   1.000  O
  O56      1.0000 0.45613  0.42541  0.42476  Biso   1.000  O
  O57      1.0000 0.84649  0.52614  0.63262  Biso   1.000  O
  O58      1.0000 0.65350  0.97386  0.13262  Biso   1.000  O
  O59      1.0000 0.15350  0.52614  0.86738  Biso   1.000  O
  O60      1.0000 0.34649  0.97386  0.36739  Biso   1.000  O
  O61      1.0000 0.15350  0.47386  0.36739  Biso   1.000  O
  O62      1.0000 0.34649  0.02614  0.86738  Biso   1.000  O
  O63      1.0000 0.84649  0.47386  0.13262  Biso   1.000  O
  O64      1.0000 0.65350  0.02614  0.63262  Biso   1.000  O
  O65      1.0000 0.34215  0.20302  0.45818  Biso   1.000  O
  O66      1.0000 0.15785  0.29698  0.95818  Biso   1.000  O
  O67      1.0000 0.65785  0.20302  0.04183  Biso   1.000  O
  O68      1.0000 0.84215  0.29698  0.54183  Biso   1.000  O
  O69      1.0000 0.65785  0.79698  0.54183  Biso   1.000  O
  O70      1.0000 0.84215  0.70302  0.04183  Biso   1.000  O
  O71      1.0000 0.34215  0.79698  0.95818  Biso   1.000  O
  O72      1.0000 0.15785  0.70302  0.45818  Biso   1.000  O
  Ir1      1.0000 0.86843  0.70434  0.64867  Biso   1.000  Ir
  Ir2      1.0000 0.63157  0.79566  0.14867  Biso   1.000  Ir
  Ir3      1.0000 0.13157  0.70434  0.85133  Biso   1.000  Ir
  Ir4      1.0000 0.36843  0.79566  0.35133  Biso   1.000  Ir
  Ir5      1.0000 0.13157  0.29566  0.35133  Biso   1.000  Ir
  Ir6      1.0000 0.36843  0.20434  0.85133  Biso   1.000  Ir
  Ir7      1.0000 0.86843  0.29566  0.14867  Biso   1.000  Ir
  Ir8      1.0000 0.63157  0.20434  0.64867  Biso   1.000  Ir
  Ir9      1.0000 0.00768  0.91957  0.60109  Biso   1.000  Ir
  Ir10     1.0000 0.49232  0.58043  0.10109  Biso   1.000  Ir
  Ir11     1.0000 0.99232  0.91957  0.89891  Biso   1.000  Ir
  Ir12     1.0000 0.50768  0.58043  0.39891  Biso   1.000  Ir
  Ir13     1.0000 0.99232  0.08043  0.39891  Biso   1.000  Ir
  Ir14     1.0000 0.50768  0.41957  0.89891  Biso   1.000  Ir
  Ir15     1.0000 0.00768  0.08043  0.10109  Biso   1.000  Ir
  Ir16     1.0000 0.49232  0.41957  0.60109  Biso   1.000  Ir
  Ir17     1.0000 0.28093  0.09052  0.41003  Biso   1.000  Ir
  Ir18     1.0000 0.21907  0.40947  0.91003  Biso   1.000  Ir
  Ir19     1.0000 0.71907  0.09052  0.08997  Biso   1.000  Ir
  Ir20     1.0000 0.78093  0.40947  0.58997  Biso   1.000  Ir
  Ir21     1.0000 0.71907  0.90948  0.58997  Biso   1.000  Ir
  Ir22     1.0000 0.78093  0.59052  0.08997  Biso   1.000  Ir
  Ir23     1.0000 0.28093  0.90948  0.91003  Biso   1.000  Ir
  Ir24     1.0000 0.21907  0.59052  0.41003  Biso   1.000  Ir
  Ir25     1.0000 0.12916  0.87890  0.47456  Biso   1.000  Ir
  Ir26     1.0000 0.37083  0.62110  0.97456  Biso   1.000  Ir
  Ir27     1.0000 0.87083  0.87890  0.02544  Biso   1.000  Ir
  Ir28     1.0000 0.62916  0.62110  0.52544  Biso   1.000  Ir
  Ir29     1.0000 0.87083  0.12110  0.52544  Biso   1.000  Ir
  Ir30     1.0000 0.62916  0.37890  0.02544  Biso   1.000  Ir
  Ir31     1.0000 0.12916  0.12110  0.97456  Biso   1.000  Ir
  Ir32     1.0000 0.37083  0.37890  0.47456  Biso   1.000  Ir
  Ir33     1.0000 0.00000  0.17202  0.25000  Biso   1.000  Ir
  Ir34     1.0000 0.50000  0.32798  0.75000  Biso   1.000  Ir
  Ir35     1.0000 0.00000  0.82798  0.75000  Biso   1.000  Ir
  Ir36     1.0000 0.50000  0.67202  0.25000  Biso   1.000  Ir
