data_image0
_cell_length_a       7.34184
_cell_length_b       7.92837
_cell_length_c       4.5858
_cell_angle_alpha    90
_cell_angle_beta     90
_cell_angle_gamma    90

_symmetry_space_group_name_H-M    "P 1"
_symmetry_int_tables_number       1

loop_
  _symmetry_equiv_pos_as_xyz
  'x, y, z'

loop_
  _atom_site_label
  _atom_site_occupancy
  _atom_site_fract_x
  _atom_site_fract_y
  _atom_site_fract_z
  _atom_site_thermal_displace_type
  _atom_site_B_iso_or_equiv
  _atom_site_type_symbol
  O1       1.0000 0.10251  0.74243  0.00551  Biso   1.000  O
  O2       1.0000 0.89749  0.25757  0.50550  Biso   1.000  O
  O3       1.0000 0.89749  0.74243  0.49450  Biso   1.000  O
  O4       1.0000 0.10251  0.25757  0.99450  Biso   1.000  O
  O5       1.0000 0.39254  0.50000  0.00000  Biso   1.000  O
  O6       1.0000 0.60745  0.50000  0.50000  Biso   1.000  O
  O7       1.0000 0.38532  0.00000  0.00000  Biso   1.000  O
  O8       1.0000 0.61468  0.00000  0.50000  Biso   1.000  O
  Ir1      1.0000 0.29407  0.75150  0.52022  Biso   1.000  Ir
  Ir2      1.0000 0.70593  0.24850  0.02022  Biso   1.000  Ir
  Ir3      1.0000 0.70593  0.75150  0.97978  Biso   1.000  Ir
  Ir4      1.0000 0.29407  0.24850  0.47978  Biso   1.000  Ir
