data_image0
_cell_length_a       12.0709
_cell_length_b       17.1355
_cell_length_c       17.1077
_cell_angle_alpha    90
_cell_angle_beta     90
_cell_angle_gamma    90

_symmetry_space_group_name_H-M    "P 1"
_symmetry_int_tables_number       1

loop_
  _symmetry_equiv_pos_as_xyz
  'x, y, z'

loop_
  _atom_site_label
  _atom_site_occupancy
  _atom_site_fract_x
  _atom_site_fract_y
  _atom_site_fract_z
  _atom_site_thermal_displace_type
  _atom_site_B_iso_or_equiv
  _atom_site_type_symbol
  O1       1.0000 0.50000  0.38828  0.95050  Biso   1.000  O
  O2       1.0000 0.50000  0.61172  0.45050  Biso   1.000  O
  O3       1.0000 0.50000  0.38828  0.54950  Biso   1.000  O
  O4       1.0000 0.50000  0.61172  0.04950  Biso   1.000  O
  O5       1.0000 0.81974  0.83131  0.07815  Biso   1.000  O
  O6       1.0000 0.18026  0.16869  0.57815  Biso   1.000  O
  O7       1.0000 0.18026  0.83131  0.42185  Biso   1.000  O
  O8       1.0000 0.81974  0.16869  0.92185  Biso   1.000  O
  O9       1.0000 0.18026  0.16869  0.92185  Biso   1.000  O
  O10      1.0000 0.81974  0.83131  0.42185  Biso   1.000  O
  O11      1.0000 0.81974  0.16869  0.57815  Biso   1.000  O
  O12      1.0000 0.18026  0.83131  0.07815  Biso   1.000  O
  O13      1.0000 0.79671  0.00000  0.00000  Biso   1.000  O
  O14      1.0000 0.20329  0.00000  0.50000  Biso   1.000  O
  O15      1.0000 0.20329  0.00000  0.00000  Biso   1.000  O
  O16      1.0000 0.79671  0.00000  0.50000  Biso   1.000  O
  O17      1.0000 0.75282  0.84803  0.89660  Biso   1.000  O
  O18      1.0000 0.24717  0.15197  0.39660  Biso   1.000  O
  O19      1.0000 0.24717  0.84803  0.60340  Biso   1.000  O
  O20      1.0000 0.75282  0.15197  0.10340  Biso   1.000  O
  O21      1.0000 0.24717  0.15197  0.10340  Biso   1.000  O
  O22      1.0000 0.75282  0.84803  0.60340  Biso   1.000  O
  O23      1.0000 0.75282  0.15197  0.39660  Biso   1.000  O
  O24      1.0000 0.24717  0.84803  0.89660  Biso   1.000  O
  O25      1.0000 0.30984  0.25978  0.25000  Biso   1.000  O
  O26      1.0000 0.69016  0.74021  0.75000  Biso   1.000  O
  O27      1.0000 0.69016  0.25978  0.25000  Biso   1.000  O
  O28      1.0000 0.30984  0.74021  0.75000  Biso   1.000  O
  O29      1.0000 0.50000  0.20222  0.13043  Biso   1.000  O
  O30      1.0000 0.50000  0.79778  0.63043  Biso   1.000  O
  O31      1.0000 0.50000  0.20222  0.36957  Biso   1.000  O
  O32      1.0000 0.50000  0.79778  0.86957  Biso   1.000  O
  O33      1.0000 0.00000  0.88828  0.95050  Biso   1.000  O
  O34      1.0000 0.00000  0.11172  0.45050  Biso   1.000  O
  O35      1.0000 0.00000  0.88828  0.54950  Biso   1.000  O
  O36      1.0000 0.00000  0.11172  0.04950  Biso   1.000  O
  O37      1.0000 0.31974  0.33131  0.07815  Biso   1.000  O
  O38      1.0000 0.68026  0.66869  0.57815  Biso   1.000  O
  O39      1.0000 0.68026  0.33131  0.42185  Biso   1.000  O
  O40      1.0000 0.31974  0.66869  0.92185  Biso   1.000  O
  O41      1.0000 0.68026  0.66869  0.92185  Biso   1.000  O
  O42      1.0000 0.31974  0.33131  0.42185  Biso   1.000  O
  O43      1.0000 0.31974  0.66869  0.57815  Biso   1.000  O
  O44      1.0000 0.68026  0.33131  0.07815  Biso   1.000  O
  O45      1.0000 0.29671  0.50000  0.00000  Biso   1.000  O
  O46      1.0000 0.70329  0.50000  0.50000  Biso   1.000  O
  O47      1.0000 0.70329  0.50000  0.00000  Biso   1.000  O
  O48      1.0000 0.29671  0.50000  0.50000  Biso   1.000  O
  O49      1.0000 0.25283  0.34803  0.89660  Biso   1.000  O
  O50      1.0000 0.74718  0.65197  0.39660  Biso   1.000  O
  O51      1.0000 0.74718  0.34803  0.60340  Biso   1.000  O
  O52      1.0000 0.25283  0.65197  0.10340  Biso   1.000  O
  O53      1.0000 0.74718  0.65197  0.10340  Biso   1.000  O
  O54      1.0000 0.25283  0.34803  0.60340  Biso   1.000  O
  O55      1.0000 0.25283  0.65197  0.39660  Biso   1.000  O
  O56      1.0000 0.74718  0.34803  0.89660  Biso   1.000  O
  O57      1.0000 0.80984  0.75979  0.25000  Biso   1.000  O
  O58      1.0000 0.19016  0.24022  0.75000  Biso   1.000  O
  O59      1.0000 0.19016  0.75979  0.25000  Biso   1.000  O
  O60      1.0000 0.80984  0.24022  0.75000  Biso   1.000  O
  O61      1.0000 0.00000  0.70222  0.13043  Biso   1.000  O
  O62      1.0000 0.00000  0.29778  0.63043  Biso   1.000  O
  O63      1.0000 0.00000  0.70222  0.36957  Biso   1.000  O
  O64      1.0000 0.00000  0.29778  0.86957  Biso   1.000  O
  Ir1      1.0000 0.84271  0.89163  0.98153  Biso   1.000  Ir
  Ir2      1.0000 0.15729  0.10837  0.48153  Biso   1.000  Ir
  Ir3      1.0000 0.15729  0.89163  0.51847  Biso   1.000  Ir
  Ir4      1.0000 0.84271  0.10837  0.01847  Biso   1.000  Ir
  Ir5      1.0000 0.15729  0.10837  0.01847  Biso   1.000  Ir
  Ir6      1.0000 0.84271  0.89163  0.51847  Biso   1.000  Ir
  Ir7      1.0000 0.84271  0.10837  0.48153  Biso   1.000  Ir
  Ir8      1.0000 0.15729  0.89163  0.98153  Biso   1.000  Ir
  Ir9      1.0000 0.34438  0.23626  0.14026  Biso   1.000  Ir
  Ir10     1.0000 0.65562  0.76374  0.64026  Biso   1.000  Ir
  Ir11     1.0000 0.65562  0.23626  0.35974  Biso   1.000  Ir
  Ir12     1.0000 0.34438  0.76374  0.85974  Biso   1.000  Ir
  Ir13     1.0000 0.65562  0.76374  0.85974  Biso   1.000  Ir
  Ir14     1.0000 0.34438  0.23626  0.35974  Biso   1.000  Ir
  Ir15     1.0000 0.34438  0.76374  0.64026  Biso   1.000  Ir
  Ir16     1.0000 0.65562  0.23626  0.14026  Biso   1.000  Ir
  Ir17     1.0000 0.34271  0.39163  0.98153  Biso   1.000  Ir
  Ir18     1.0000 0.65729  0.60837  0.48153  Biso   1.000  Ir
  Ir19     1.0000 0.65729  0.39163  0.51847  Biso   1.000  Ir
  Ir20     1.0000 0.34271  0.60837  0.01847  Biso   1.000  Ir
  Ir21     1.0000 0.65729  0.60837  0.01847  Biso   1.000  Ir
  Ir22     1.0000 0.34271  0.39163  0.51847  Biso   1.000  Ir
  Ir23     1.0000 0.34271  0.60837  0.48153  Biso   1.000  Ir
  Ir24     1.0000 0.65729  0.39163  0.98153  Biso   1.000  Ir
  Ir25     1.0000 0.84438  0.73626  0.14026  Biso   1.000  Ir
  Ir26     1.0000 0.15562  0.26374  0.64026  Biso   1.000  Ir
  Ir27     1.0000 0.15562  0.73626  0.35974  Biso   1.000  Ir
  Ir28     1.0000 0.84438  0.26374  0.85974  Biso   1.000  Ir
  Ir29     1.0000 0.15562  0.26374  0.85974  Biso   1.000  Ir
  Ir30     1.0000 0.84438  0.73626  0.35974  Biso   1.000  Ir
  Ir31     1.0000 0.84438  0.26374  0.64026  Biso   1.000  Ir
  Ir32     1.0000 0.15562  0.73626  0.14026  Biso   1.000  Ir
