data_image0
_cell_length_a       40.8958
_cell_length_b       11.3711
_cell_length_c       16.0286
_cell_angle_alpha    90
_cell_angle_beta     92.5482
_cell_angle_gamma    90

_symmetry_space_group_name_H-M    "P 1"
_symmetry_int_tables_number       1

loop_
  _symmetry_equiv_pos_as_xyz
  'x, y, z'

loop_
  _atom_site_label
  _atom_site_occupancy
  _atom_site_fract_x
  _atom_site_fract_y
  _atom_site_fract_z
  _atom_site_thermal_displace_type
  _atom_site_B_iso_or_equiv
  _atom_site_type_symbol
  O1       1.0000 0.56035  0.78075  0.54514  Biso   1.000  O
  O2       1.0000 0.93965  0.28075  0.45487  Biso   1.000  O
  O3       1.0000 0.93965  0.71925  0.45487  Biso   1.000  O
  O4       1.0000 0.56035  0.21925  0.54514  Biso   1.000  O
  O5       1.0000 0.99750  0.76444  0.65394  Biso   1.000  O
  O6       1.0000 0.50250  0.26444  0.34606  Biso   1.000  O
  O7       1.0000 0.50250  0.73556  0.34606  Biso   1.000  O
  O8       1.0000 0.99750  0.23556  0.65394  Biso   1.000  O
  O9       1.0000 0.82974  0.29481  0.47970  Biso   1.000  O
  O10      1.0000 0.67026  0.79481  0.52030  Biso   1.000  O
  O11      1.0000 0.67026  0.20519  0.52030  Biso   1.000  O
  O12      1.0000 0.82974  0.70519  0.47970  Biso   1.000  O
  O13      1.0000 0.78019  0.00000  0.71603  Biso   1.000  O
  O14      1.0000 0.71980  0.50000  0.28397  Biso   1.000  O
  O15      1.0000 0.63323  0.00000  0.36366  Biso   1.000  O
  O16      1.0000 0.86677  0.50000  0.63634  Biso   1.000  O
  O17      1.0000 0.58470  0.73590  0.76241  Biso   1.000  O
  O18      1.0000 0.91530  0.23590  0.23759  Biso   1.000  O
  O19      1.0000 0.91530  0.76410  0.23759  Biso   1.000  O
  O20      1.0000 0.58470  0.26410  0.76241  Biso   1.000  O
  O21      1.0000 0.66521  0.71759  0.71938  Biso   1.000  O
  O22      1.0000 0.83479  0.21759  0.28062  Biso   1.000  O
  O23      1.0000 0.83479  0.78240  0.28062  Biso   1.000  O
  O24      1.0000 0.66521  0.28240  0.71938  Biso   1.000  O
  O25      1.0000 0.83964  0.71340  0.07953  Biso   1.000  O
  O26      1.0000 0.66035  0.21340  0.92047  Biso   1.000  O
  O27      1.0000 0.66035  0.78660  0.92047  Biso   1.000  O
  O28      1.0000 0.83964  0.28660  0.07953  Biso   1.000  O
  O29      1.0000 0.75491  0.78402  0.32586  Biso   1.000  O
  O30      1.0000 0.74509  0.28402  0.67414  Biso   1.000  O
  O31      1.0000 0.74509  0.71598  0.67414  Biso   1.000  O
  O32      1.0000 0.75491  0.21598  0.32586  Biso   1.000  O
  O33      1.0000 0.66758  0.73609  0.31114  Biso   1.000  O
  O34      1.0000 0.83242  0.23609  0.68886  Biso   1.000  O
  O35      1.0000 0.83242  0.76391  0.68886  Biso   1.000  O
  O36      1.0000 0.66758  0.26391  0.31114  Biso   1.000  O
  O37      1.0000 0.69607  0.72167  0.13165  Biso   1.000  O
  O38      1.0000 0.80393  0.22167  0.86835  Biso   1.000  O
  O39      1.0000 0.80393  0.77833  0.86835  Biso   1.000  O
  O40      1.0000 0.69607  0.27833  0.13165  Biso   1.000  O
  O41      1.0000 0.79029  0.50000  0.94578  Biso   1.000  O
  O42      1.0000 0.70971  0.00000  0.05422  Biso   1.000  O
  O43      1.0000 0.90858  0.23040  0.62888  Biso   1.000  O
  O44      1.0000 0.59142  0.73040  0.37112  Biso   1.000  O
  O45      1.0000 0.59142  0.26960  0.37112  Biso   1.000  O
  O46      1.0000 0.90858  0.76960  0.62888  Biso   1.000  O
  O47      1.0000 0.85958  0.00000  0.15703  Biso   1.000  O
  O48      1.0000 0.64042  0.50000  0.84297  Biso   1.000  O
  O49      1.0000 0.55231  0.50000  0.45323  Biso   1.000  O
  O50      1.0000 0.94769  0.00000  0.54677  Biso   1.000  O
  O51      1.0000 0.81641  0.00000  0.41394  Biso   1.000  O
  O52      1.0000 0.68359  0.50000  0.58606  Biso   1.000  O
  O53      1.0000 0.75000  0.75000  0.00000  Biso   1.000  O
  O54      1.0000 0.75000  0.25000  0.00000  Biso   1.000  O
  O55      1.0000 0.95548  0.50000  0.32138  Biso   1.000  O
  O56      1.0000 0.54452  0.00000  0.67862  Biso   1.000  O
  O57      1.0000 0.06035  0.28075  0.54514  Biso   1.000  O
  O58      1.0000 0.43965  0.78075  0.45487  Biso   1.000  O
  O59      1.0000 0.43965  0.21925  0.45487  Biso   1.000  O
  O60      1.0000 0.06035  0.71925  0.54514  Biso   1.000  O
  O61      1.0000 0.49750  0.26444  0.65394  Biso   1.000  O
  O62      1.0000 0.00250  0.76444  0.34606  Biso   1.000  O
  O63      1.0000 0.00250  0.23556  0.34606  Biso   1.000  O
  O64      1.0000 0.49750  0.73556  0.65394  Biso   1.000  O
  O65      1.0000 0.32974  0.79481  0.47970  Biso   1.000  O
  O66      1.0000 0.17026  0.29481  0.52030  Biso   1.000  O
  O67      1.0000 0.17026  0.70519  0.52030  Biso   1.000  O
  O68      1.0000 0.32974  0.20519  0.47970  Biso   1.000  O
  O69      1.0000 0.28019  0.50000  0.71603  Biso   1.000  O
  O70      1.0000 0.21981  0.00000  0.28397  Biso   1.000  O
  O71      1.0000 0.13323  0.50000  0.36366  Biso   1.000  O
  O72      1.0000 0.36677  0.00000  0.63634  Biso   1.000  O
  O73      1.0000 0.08470  0.23590  0.76241  Biso   1.000  O
  O74      1.0000 0.41530  0.73590  0.23759  Biso   1.000  O
  O75      1.0000 0.41530  0.26410  0.23759  Biso   1.000  O
  O76      1.0000 0.08470  0.76410  0.76241  Biso   1.000  O
  O77      1.0000 0.16521  0.21759  0.71938  Biso   1.000  O
  O78      1.0000 0.33479  0.71759  0.28062  Biso   1.000  O
  O79      1.0000 0.33479  0.28240  0.28062  Biso   1.000  O
  O80      1.0000 0.16521  0.78240  0.71938  Biso   1.000  O
  O81      1.0000 0.33964  0.21340  0.07953  Biso   1.000  O
  O82      1.0000 0.16035  0.71340  0.92047  Biso   1.000  O
  O83      1.0000 0.16035  0.28660  0.92047  Biso   1.000  O
  O84      1.0000 0.33964  0.78660  0.07953  Biso   1.000  O
  O85      1.0000 0.25490  0.28402  0.32586  Biso   1.000  O
  O86      1.0000 0.24509  0.78402  0.67414  Biso   1.000  O
  O87      1.0000 0.24509  0.21598  0.67414  Biso   1.000  O
  O88      1.0000 0.25490  0.71598  0.32586  Biso   1.000  O
  O89      1.0000 0.16759  0.23609  0.31114  Biso   1.000  O
  O90      1.0000 0.33241  0.73609  0.68886  Biso   1.000  O
  O91      1.0000 0.33241  0.26391  0.68886  Biso   1.000  O
  O92      1.0000 0.16759  0.76391  0.31114  Biso   1.000  O
  O93      1.0000 0.19607  0.22167  0.13165  Biso   1.000  O
  O94      1.0000 0.30393  0.72167  0.86835  Biso   1.000  O
  O95      1.0000 0.30393  0.27833  0.86835  Biso   1.000  O
  O96      1.0000 0.19607  0.77833  0.13165  Biso   1.000  O
  O97      1.0000 0.29029  0.00000  0.94578  Biso   1.000  O
  O98      1.0000 0.20971  0.50000  0.05422  Biso   1.000  O
  O99      1.0000 0.40858  0.73040  0.62888  Biso   1.000  O
  O100     1.0000 0.09142  0.23040  0.37112  Biso   1.000  O
  O101     1.0000 0.09142  0.76960  0.37112  Biso   1.000  O
  O102     1.0000 0.40858  0.26960  0.62888  Biso   1.000  O
  O103     1.0000 0.35958  0.50000  0.15703  Biso   1.000  O
  O104     1.0000 0.14042  0.00000  0.84297  Biso   1.000  O
  O105     1.0000 0.05231  0.00000  0.45323  Biso   1.000  O
  O106     1.0000 0.44769  0.50000  0.54677  Biso   1.000  O
  O107     1.0000 0.31641  0.50000  0.41394  Biso   1.000  O
  O108     1.0000 0.18359  0.00000  0.58606  Biso   1.000  O
  O109     1.0000 0.25000  0.25000  0.00000  Biso   1.000  O
  O110     1.0000 0.25000  0.75000  0.00000  Biso   1.000  O
  O111     1.0000 0.45548  0.00000  0.32138  Biso   1.000  O
  O112     1.0000 0.04452  0.50000  0.67862  Biso   1.000  O
  Ir1      1.0000 0.79044  0.18539  0.73693  Biso   1.000  Ir
  Ir2      1.0000 0.70956  0.68539  0.26307  Biso   1.000  Ir
  Ir3      1.0000 0.70956  0.31461  0.26307  Biso   1.000  Ir
  Ir4      1.0000 0.79044  0.81461  0.73693  Biso   1.000  Ir
  Ir5      1.0000 0.70412  0.81440  0.02641  Biso   1.000  Ir
  Ir6      1.0000 0.79588  0.31440  0.97359  Biso   1.000  Ir
  Ir7      1.0000 0.79588  0.68560  0.97359  Biso   1.000  Ir
  Ir8      1.0000 0.70412  0.18560  0.02641  Biso   1.000  Ir
  Ir9      1.0000 0.80890  0.81774  0.37463  Biso   1.000  Ir
  Ir10     1.0000 0.69110  0.31774  0.62537  Biso   1.000  Ir
  Ir11     1.0000 0.69110  0.68226  0.62537  Biso   1.000  Ir
  Ir12     1.0000 0.80890  0.18226  0.37463  Biso   1.000  Ir
  Ir13     1.0000 0.55163  0.31331  0.42859  Biso   1.000  Ir
  Ir14     1.0000 0.94837  0.81331  0.57141  Biso   1.000  Ir
  Ir15     1.0000 0.94837  0.18669  0.57141  Biso   1.000  Ir
  Ir16     1.0000 0.55163  0.68669  0.42859  Biso   1.000  Ir
  Ir17     1.0000 0.85911  0.31536  0.60802  Biso   1.000  Ir
  Ir18     1.0000 0.64089  0.81536  0.39198  Biso   1.000  Ir
  Ir19     1.0000 0.64089  0.18463  0.39198  Biso   1.000  Ir
  Ir20     1.0000 0.85911  0.68463  0.60802  Biso   1.000  Ir
  Ir21     1.0000 0.95323  0.68683  0.34028  Biso   1.000  Ir
  Ir22     1.0000 0.54677  0.18683  0.65972  Biso   1.000  Ir
  Ir23     1.0000 0.54677  0.81317  0.65972  Biso   1.000  Ir
  Ir24     1.0000 0.95323  0.31317  0.34028  Biso   1.000  Ir
  Ir25     1.0000 0.86227  0.18439  0.18915  Biso   1.000  Ir
  Ir26     1.0000 0.63772  0.68439  0.81085  Biso   1.000  Ir
  Ir27     1.0000 0.63772  0.31561  0.81085  Biso   1.000  Ir
  Ir28     1.0000 0.86227  0.81561  0.18915  Biso   1.000  Ir
  Ir29     1.0000 0.29044  0.68539  0.73693  Biso   1.000  Ir
  Ir30     1.0000 0.20956  0.18539  0.26307  Biso   1.000  Ir
  Ir31     1.0000 0.20956  0.81461  0.26307  Biso   1.000  Ir
  Ir32     1.0000 0.29044  0.31461  0.73693  Biso   1.000  Ir
  Ir33     1.0000 0.20412  0.31440  0.02641  Biso   1.000  Ir
  Ir34     1.0000 0.29588  0.81440  0.97359  Biso   1.000  Ir
  Ir35     1.0000 0.29588  0.18560  0.97359  Biso   1.000  Ir
  Ir36     1.0000 0.20412  0.68560  0.02641  Biso   1.000  Ir
  Ir37     1.0000 0.30890  0.31774  0.37463  Biso   1.000  Ir
  Ir38     1.0000 0.19110  0.81774  0.62537  Biso   1.000  Ir
  Ir39     1.0000 0.19110  0.18226  0.62537  Biso   1.000  Ir
  Ir40     1.0000 0.30890  0.68226  0.37463  Biso   1.000  Ir
  Ir41     1.0000 0.05163  0.81331  0.42859  Biso   1.000  Ir
  Ir42     1.0000 0.44837  0.31331  0.57141  Biso   1.000  Ir
  Ir43     1.0000 0.44837  0.68669  0.57141  Biso   1.000  Ir
  Ir44     1.0000 0.05163  0.18669  0.42859  Biso   1.000  Ir
  Ir45     1.0000 0.35911  0.81536  0.60802  Biso   1.000  Ir
  Ir46     1.0000 0.14089  0.31536  0.39198  Biso   1.000  Ir
  Ir47     1.0000 0.14089  0.68463  0.39198  Biso   1.000  Ir
  Ir48     1.0000 0.35911  0.18463  0.60802  Biso   1.000  Ir
  Ir49     1.0000 0.45323  0.18683  0.34028  Biso   1.000  Ir
  Ir50     1.0000 0.04677  0.68683  0.65972  Biso   1.000  Ir
  Ir51     1.0000 0.04677  0.31317  0.65972  Biso   1.000  Ir
  Ir52     1.0000 0.45323  0.81317  0.34028  Biso   1.000  Ir
  Ir53     1.0000 0.36228  0.68439  0.18915  Biso   1.000  Ir
  Ir54     1.0000 0.13772  0.18439  0.81085  Biso   1.000  Ir
  Ir55     1.0000 0.13772  0.81561  0.81085  Biso   1.000  Ir
  Ir56     1.0000 0.36228  0.31561  0.18915  Biso   1.000  Ir
