data_image0
_cell_length_a       10.247
_cell_length_b       10.247
_cell_length_c       16.2181
_cell_angle_alpha    90
_cell_angle_beta     90
_cell_angle_gamma    120

_symmetry_space_group_name_H-M    "P 1"
_symmetry_int_tables_number       1

loop_
  _symmetry_equiv_pos_as_xyz
  'x, y, z'

loop_
  _atom_site_label
  _atom_site_occupancy
  _atom_site_fract_x
  _atom_site_fract_y
  _atom_site_fract_z
  _atom_site_thermal_displace_type
  _atom_site_B_iso_or_equiv
  _atom_site_type_symbol
  O1       1.0000 0.17801  0.00000  0.00000  Biso   1.000  O
  O2       1.0000 0.00000  0.17801  0.33333  Biso   1.000  O
  O3       1.0000 0.82199  0.82199  0.66667  Biso   1.000  O
  O4       1.0000 0.82199  0.00000  0.00000  Biso   1.000  O
  O5       1.0000 0.00000  0.82199  0.33333  Biso   1.000  O
  O6       1.0000 0.17801  0.17801  0.66667  Biso   1.000  O
  O7       1.0000 0.60482  0.20964  0.00000  Biso   1.000  O
  O8       1.0000 0.79036  0.39518  0.33333  Biso   1.000  O
  O9       1.0000 0.60482  0.39518  0.66667  Biso   1.000  O
  O10      1.0000 0.39518  0.79036  0.00000  Biso   1.000  O
  O11      1.0000 0.20964  0.60482  0.33333  Biso   1.000  O
  O12      1.0000 0.39518  0.60482  0.66667  Biso   1.000  O
  O13      1.0000 0.50000  0.00000  0.69415  Biso   1.000  O
  O14      1.0000 0.00000  0.50000  0.02749  Biso   1.000  O
  O15      1.0000 0.50000  0.50000  0.36082  Biso   1.000  O
  O16      1.0000 0.00000  0.50000  0.63918  Biso   1.000  O
  O17      1.0000 0.50000  0.00000  0.30585  Biso   1.000  O
  O18      1.0000 0.50000  0.50000  0.97252  Biso   1.000  O
  O19      1.0000 0.81543  0.63087  0.50000  Biso   1.000  O
  O20      1.0000 0.36913  0.18457  0.83333  Biso   1.000  O
  O21      1.0000 0.81543  0.18457  0.16667  Biso   1.000  O
  O22      1.0000 0.18457  0.36913  0.50000  Biso   1.000  O
  O23      1.0000 0.63087  0.81543  0.83333  Biso   1.000  O
  O24      1.0000 0.18457  0.81543  0.16667  Biso   1.000  O
  Ir1      1.0000 0.82481  0.22689  0.04832  Biso   1.000  Ir
  Ir2      1.0000 0.77311  0.59792  0.38165  Biso   1.000  Ir
  Ir3      1.0000 0.40208  0.17519  0.71499  Biso   1.000  Ir
  Ir4      1.0000 0.17519  0.77311  0.04832  Biso   1.000  Ir
  Ir5      1.0000 0.22689  0.40208  0.38165  Biso   1.000  Ir
  Ir6      1.0000 0.59792  0.82481  0.71499  Biso   1.000  Ir
  Ir7      1.0000 0.22689  0.82481  0.28501  Biso   1.000  Ir
  Ir8      1.0000 0.59792  0.77311  0.95168  Biso   1.000  Ir
  Ir9      1.0000 0.17519  0.40208  0.61834  Biso   1.000  Ir
  Ir10     1.0000 0.77311  0.17519  0.28501  Biso   1.000  Ir
  Ir11     1.0000 0.40208  0.22689  0.95168  Biso   1.000  Ir
  Ir12     1.0000 0.82481  0.59792  0.61834  Biso   1.000  Ir
