data_image0
_cell_length_a       7.07495
_cell_length_b       7.07496
_cell_length_c       14.0508
_cell_angle_alpha    90
_cell_angle_beta     90
_cell_angle_gamma    120

_symmetry_space_group_name_H-M    "P 1"
_symmetry_int_tables_number       1

loop_
  _symmetry_equiv_pos_as_xyz
  'x, y, z'

loop_
  _atom_site_label
  _atom_site_occupancy
  _atom_site_fract_x
  _atom_site_fract_y
  _atom_site_fract_z
  _atom_site_thermal_displace_type
  _atom_site_B_iso_or_equiv
  _atom_site_type_symbol
  Ir1      1.0000 0.17214  0.34427  0.33255  Biso   1.000  Ir
  Ir2      1.0000 0.65573  0.82786  0.33255  Biso   1.000  Ir
  Ir3      1.0000 0.17214  0.82786  0.33255  Biso   1.000  Ir
  Ir4      1.0000 0.33333  0.66667  0.78886  Biso   1.000  Ir
  Ir5      1.0000 0.83880  0.67761  0.66589  Biso   1.000  Ir
  Ir6      1.0000 0.32239  0.16120  0.66589  Biso   1.000  Ir
  Ir7      1.0000 0.83880  0.16120  0.66589  Biso   1.000  Ir
  Ir8      1.0000 0.00000  0.00000  0.12219  Biso   1.000  Ir
  Ir9      1.0000 0.50547  0.01094  0.99922  Biso   1.000  Ir
  Ir10     1.0000 0.98906  0.49453  0.99922  Biso   1.000  Ir
  Ir11     1.0000 0.50547  0.49453  0.99922  Biso   1.000  Ir
  Ir12     1.0000 0.66667  0.33333  0.45552  Biso   1.000  Ir
  O1       1.0000 0.33333  0.66667  0.40305  Biso   1.000  O
  O2       1.0000 0.48263  0.96526  0.26576  Biso   1.000  O
  O3       1.0000 0.03474  0.51737  0.26576  Biso   1.000  O
  O4       1.0000 0.48263  0.51737  0.26576  Biso   1.000  O
  O5       1.0000 0.17005  0.34010  0.07061  Biso   1.000  O
  O6       1.0000 0.65990  0.82995  0.07061  Biso   1.000  O
  O7       1.0000 0.17005  0.82995  0.07061  Biso   1.000  O
  O8       1.0000 0.33333  0.66667  0.92634  Biso   1.000  O
  O9       1.0000 0.00000  0.00000  0.73638  Biso   1.000  O
  O10      1.0000 0.14930  0.29860  0.59909  Biso   1.000  O
  O11      1.0000 0.70140  0.85070  0.59909  Biso   1.000  O
  O12      1.0000 0.14930  0.85070  0.59909  Biso   1.000  O
  O13      1.0000 0.83672  0.67344  0.40394  Biso   1.000  O
  O14      1.0000 0.32656  0.16328  0.40394  Biso   1.000  O
  O15      1.0000 0.83672  0.16328  0.40394  Biso   1.000  O
  O16      1.0000 0.00000  0.00000  0.25967  Biso   1.000  O
  O17      1.0000 0.66667  0.33333  0.06972  Biso   1.000  O
  O18      1.0000 0.81597  0.63193  0.93242  Biso   1.000  O
  O19      1.0000 0.36807  0.18404  0.93242  Biso   1.000  O
  O20      1.0000 0.81597  0.18404  0.93242  Biso   1.000  O
  O21      1.0000 0.50338  0.00677  0.73727  Biso   1.000  O
  O22      1.0000 0.99323  0.49661  0.73727  Biso   1.000  O
  O23      1.0000 0.50338  0.49661  0.73727  Biso   1.000  O
  O24      1.0000 0.66667  0.33333  0.59301  Biso   1.000  O
