data_image0
_cell_length_a       15.4023
_cell_length_b       15.4023
_cell_length_c       31.9536
_cell_angle_alpha    90
_cell_angle_beta     90
_cell_angle_gamma    90

_symmetry_space_group_name_H-M    "P 1"
_symmetry_int_tables_number       1

loop_
  _symmetry_equiv_pos_as_xyz
  'x, y, z'

loop_
  _atom_site_label
  _atom_site_occupancy
  _atom_site_fract_x
  _atom_site_fract_y
  _atom_site_fract_z
  _atom_site_thermal_displace_type
  _atom_site_B_iso_or_equiv
  _atom_site_type_symbol
  O1       1.0000 0.83322  0.83959  0.05973  Biso   1.000  O
  O2       1.0000 0.16678  0.16041  0.55973  Biso   1.000  O
  O3       1.0000 0.16041  0.83322  0.30973  Biso   1.000  O
  O4       1.0000 0.83959  0.16678  0.80973  Biso   1.000  O
  O5       1.0000 0.16678  0.83959  0.94027  Biso   1.000  O
  O6       1.0000 0.83322  0.16041  0.44027  Biso   1.000  O
  O7       1.0000 0.83959  0.83322  0.69027  Biso   1.000  O
  O8       1.0000 0.16041  0.16678  0.19027  Biso   1.000  O
  O9       1.0000 0.00000  0.82725  0.00000  Biso   1.000  O
  O10      1.0000 0.00000  0.17275  0.50000  Biso   1.000  O
  O11      1.0000 0.17275  0.00000  0.25000  Biso   1.000  O
  O12      1.0000 0.82725  0.00000  0.75000  Biso   1.000  O
  O13      1.0000 0.02367  0.85071  0.09929  Biso   1.000  O
  O14      1.0000 0.97633  0.14929  0.59929  Biso   1.000  O
  O15      1.0000 0.14929  0.02367  0.34929  Biso   1.000  O
  O16      1.0000 0.85071  0.97633  0.84929  Biso   1.000  O
  O17      1.0000 0.97633  0.85071  0.90071  Biso   1.000  O
  O18      1.0000 0.02367  0.14929  0.40071  Biso   1.000  O
  O19      1.0000 0.85071  0.02367  0.65071  Biso   1.000  O
  O20      1.0000 0.14929  0.97633  0.15071  Biso   1.000  O
  O21      1.0000 0.95474  0.66944  0.06224  Biso   1.000  O
  O22      1.0000 0.04526  0.33056  0.56224  Biso   1.000  O
  O23      1.0000 0.33056  0.95474  0.31224  Biso   1.000  O
  O24      1.0000 0.66944  0.04526  0.81224  Biso   1.000  O
  O25      1.0000 0.04526  0.66944  0.93776  Biso   1.000  O
  O26      1.0000 0.95474  0.33056  0.43776  Biso   1.000  O
  O27      1.0000 0.66944  0.95474  0.68776  Biso   1.000  O
  O28      1.0000 0.33056  0.04526  0.18776  Biso   1.000  O
  O29      1.0000 0.83445  0.49846  0.06059  Biso   1.000  O
  O30      1.0000 0.16555  0.50154  0.56059  Biso   1.000  O
  O31      1.0000 0.50154  0.83445  0.31059  Biso   1.000  O
  O32      1.0000 0.49846  0.16555  0.81059  Biso   1.000  O
  O33      1.0000 0.16555  0.49846  0.93941  Biso   1.000  O
  O34      1.0000 0.83445  0.50154  0.43941  Biso   1.000  O
  O35      1.0000 0.49846  0.83445  0.68941  Biso   1.000  O
  O36      1.0000 0.50154  0.16555  0.18941  Biso   1.000  O
  O37      1.0000 0.00000  0.51170  0.00000  Biso   1.000  O
  O38      1.0000 0.00000  0.48829  0.50000  Biso   1.000  O
  O39      1.0000 0.48829  0.00000  0.25000  Biso   1.000  O
  O40      1.0000 0.51170  0.00000  0.75000  Biso   1.000  O
  O41      1.0000 0.02561  0.48861  0.09902  Biso   1.000  O
  O42      1.0000 0.97439  0.51139  0.59902  Biso   1.000  O
  O43      1.0000 0.51139  0.02561  0.34902  Biso   1.000  O
  O44      1.0000 0.48861  0.97439  0.84902  Biso   1.000  O
  O45      1.0000 0.97439  0.48861  0.90098  Biso   1.000  O
  O46      1.0000 0.02561  0.51139  0.40098  Biso   1.000  O
  O47      1.0000 0.48861  0.02561  0.65098  Biso   1.000  O
  O48      1.0000 0.51139  0.97439  0.15098  Biso   1.000  O
  O49      1.0000 0.64205  0.85576  0.09875  Biso   1.000  O
  O50      1.0000 0.35795  0.14424  0.59875  Biso   1.000  O
  O51      1.0000 0.14424  0.64205  0.34875  Biso   1.000  O
  O52      1.0000 0.85576  0.35795  0.84875  Biso   1.000  O
  O53      1.0000 0.35795  0.85576  0.90125  Biso   1.000  O
  O54      1.0000 0.64205  0.14424  0.40125  Biso   1.000  O
  O55      1.0000 0.85576  0.64205  0.65125  Biso   1.000  O
  O56      1.0000 0.14424  0.35795  0.15125  Biso   1.000  O
  O57      1.0000 0.71733  0.66874  0.07407  Biso   1.000  O
  O58      1.0000 0.28266  0.33126  0.57407  Biso   1.000  O
  O59      1.0000 0.33126  0.71733  0.32407  Biso   1.000  O
  O60      1.0000 0.66874  0.28266  0.82407  Biso   1.000  O
  O61      1.0000 0.28266  0.66874  0.92593  Biso   1.000  O
  O62      1.0000 0.71733  0.33126  0.42593  Biso   1.000  O
  O63      1.0000 0.66874  0.71733  0.67593  Biso   1.000  O
  O64      1.0000 0.33126  0.28266  0.17593  Biso   1.000  O
  O65      1.0000 0.66499  0.80419  0.00182  Biso   1.000  O
  O66      1.0000 0.33501  0.19581  0.50182  Biso   1.000  O
  O67      1.0000 0.19581  0.66499  0.25182  Biso   1.000  O
  O68      1.0000 0.80419  0.33501  0.75182  Biso   1.000  O
  O69      1.0000 0.33501  0.80419  0.99818  Biso   1.000  O
  O70      1.0000 0.66499  0.19581  0.49818  Biso   1.000  O
  O71      1.0000 0.80419  0.66499  0.74818  Biso   1.000  O
  O72      1.0000 0.19581  0.33501  0.24818  Biso   1.000  O
  O73      1.0000 0.64358  0.48283  0.10018  Biso   1.000  O
  O74      1.0000 0.35642  0.51717  0.60018  Biso   1.000  O
  O75      1.0000 0.51717  0.64358  0.35018  Biso   1.000  O
  O76      1.0000 0.48283  0.35642  0.85018  Biso   1.000  O
  O77      1.0000 0.35642  0.48283  0.89982  Biso   1.000  O
  O78      1.0000 0.64358  0.51717  0.39982  Biso   1.000  O
  O79      1.0000 0.48283  0.64358  0.64982  Biso   1.000  O
  O80      1.0000 0.51717  0.35642  0.14982  Biso   1.000  O
  O81      1.0000 0.66537  0.52896  0.00285  Biso   1.000  O
  O82      1.0000 0.33463  0.47104  0.50285  Biso   1.000  O
  O83      1.0000 0.47104  0.66537  0.25285  Biso   1.000  O
  O84      1.0000 0.52896  0.33463  0.75285  Biso   1.000  O
  O85      1.0000 0.33463  0.52896  0.99715  Biso   1.000  O
  O86      1.0000 0.66537  0.47104  0.49715  Biso   1.000  O
  O87      1.0000 0.52896  0.66537  0.74715  Biso   1.000  O
  O88      1.0000 0.47104  0.33463  0.24715  Biso   1.000  O
  O89      1.0000 0.43699  0.84063  0.08277  Biso   1.000  O
  O90      1.0000 0.56301  0.15937  0.58277  Biso   1.000  O
  O91      1.0000 0.15937  0.43699  0.33277  Biso   1.000  O
  O92      1.0000 0.84063  0.56301  0.83277  Biso   1.000  O
  O93      1.0000 0.56301  0.84063  0.91723  Biso   1.000  O
  O94      1.0000 0.43699  0.15937  0.41723  Biso   1.000  O
  O95      1.0000 0.84063  0.43699  0.66723  Biso   1.000  O
  O96      1.0000 0.15937  0.56301  0.16723  Biso   1.000  O
  O97      1.0000 0.32760  0.66451  0.07287  Biso   1.000  O
  O98      1.0000 0.67240  0.33549  0.57287  Biso   1.000  O
  O99      1.0000 0.33549  0.32760  0.32287  Biso   1.000  O
  O100     1.0000 0.66451  0.67240  0.82287  Biso   1.000  O
  O101     1.0000 0.67240  0.66451  0.92713  Biso   1.000  O
  O102     1.0000 0.32760  0.33549  0.42713  Biso   1.000  O
  O103     1.0000 0.66451  0.32760  0.67713  Biso   1.000  O
  O104     1.0000 0.33549  0.67240  0.17713  Biso   1.000  O
  O105     1.0000 0.22889  0.84710  0.08164  Biso   1.000  O
  O106     1.0000 0.77111  0.15290  0.58164  Biso   1.000  O
  O107     1.0000 0.15290  0.22889  0.33164  Biso   1.000  O
  O108     1.0000 0.84710  0.77111  0.83164  Biso   1.000  O
  O109     1.0000 0.77111  0.84710  0.91836  Biso   1.000  O
  O110     1.0000 0.22889  0.15290  0.41836  Biso   1.000  O
  O111     1.0000 0.84710  0.22889  0.66836  Biso   1.000  O
  O112     1.0000 0.15290  0.77111  0.16836  Biso   1.000  O
  O113     1.0000 0.43885  0.48833  0.08098  Biso   1.000  O
  O114     1.0000 0.56115  0.51167  0.58098  Biso   1.000  O
  O115     1.0000 0.51167  0.43885  0.33098  Biso   1.000  O
  O116     1.0000 0.48833  0.56115  0.83098  Biso   1.000  O
  O117     1.0000 0.56115  0.48833  0.91902  Biso   1.000  O
  O118     1.0000 0.43885  0.51167  0.41902  Biso   1.000  O
  O119     1.0000 0.48833  0.43885  0.66902  Biso   1.000  O
  O120     1.0000 0.51167  0.56115  0.16902  Biso   1.000  O
  O121     1.0000 0.23080  0.48060  0.08093  Biso   1.000  O
  O122     1.0000 0.76920  0.51940  0.58093  Biso   1.000  O
  O123     1.0000 0.51940  0.23080  0.33093  Biso   1.000  O
  O124     1.0000 0.48060  0.76920  0.83093  Biso   1.000  O
  O125     1.0000 0.76920  0.48060  0.91907  Biso   1.000  O
  O126     1.0000 0.23080  0.51940  0.41907  Biso   1.000  O
  O127     1.0000 0.48060  0.23080  0.66907  Biso   1.000  O
  O128     1.0000 0.51940  0.76920  0.16907  Biso   1.000  O
  Ir1      1.0000 0.95319  0.79634  0.05527  Biso   1.000  Ir
  Ir2      1.0000 0.04681  0.20366  0.55527  Biso   1.000  Ir
  Ir3      1.0000 0.20366  0.95319  0.30527  Biso   1.000  Ir
  Ir4      1.0000 0.79634  0.04681  0.80527  Biso   1.000  Ir
  Ir5      1.0000 0.04681  0.79634  0.94473  Biso   1.000  Ir
  Ir6      1.0000 0.95319  0.20366  0.44473  Biso   1.000  Ir
  Ir7      1.0000 0.79634  0.95319  0.69473  Biso   1.000  Ir
  Ir8      1.0000 0.20366  0.04681  0.19473  Biso   1.000  Ir
  Ir9      1.0000 0.95395  0.54250  0.05543  Biso   1.000  Ir
  Ir10     1.0000 0.04605  0.45750  0.55543  Biso   1.000  Ir
  Ir11     1.0000 0.45750  0.95395  0.30543  Biso   1.000  Ir
  Ir12     1.0000 0.54250  0.04605  0.80543  Biso   1.000  Ir
  Ir13     1.0000 0.04605  0.54250  0.94457  Biso   1.000  Ir
  Ir14     1.0000 0.95395  0.45750  0.44457  Biso   1.000  Ir
  Ir15     1.0000 0.54250  0.95395  0.69457  Biso   1.000  Ir
  Ir16     1.0000 0.45750  0.04605  0.19457  Biso   1.000  Ir
  Ir17     1.0000 0.71441  0.79232  0.05847  Biso   1.000  Ir
  Ir18     1.0000 0.28559  0.20768  0.55847  Biso   1.000  Ir
  Ir19     1.0000 0.20768  0.71441  0.30847  Biso   1.000  Ir
  Ir20     1.0000 0.79232  0.28559  0.80847  Biso   1.000  Ir
  Ir21     1.0000 0.28559  0.79232  0.94153  Biso   1.000  Ir
  Ir22     1.0000 0.71441  0.20768  0.44153  Biso   1.000  Ir
  Ir23     1.0000 0.79232  0.71441  0.69153  Biso   1.000  Ir
  Ir24     1.0000 0.20768  0.28559  0.19153  Biso   1.000  Ir
  Ir25     1.0000 0.71523  0.54468  0.05920  Biso   1.000  Ir
  Ir26     1.0000 0.28477  0.45532  0.55920  Biso   1.000  Ir
  Ir27     1.0000 0.45532  0.71523  0.30920  Biso   1.000  Ir
  Ir28     1.0000 0.54468  0.28477  0.80920  Biso   1.000  Ir
  Ir29     1.0000 0.28477  0.54468  0.94080  Biso   1.000  Ir
  Ir30     1.0000 0.71523  0.45532  0.44080  Biso   1.000  Ir
  Ir31     1.0000 0.54468  0.71523  0.69080  Biso   1.000  Ir
  Ir32     1.0000 0.45532  0.28477  0.19080  Biso   1.000  Ir
  Ir33     1.0000 0.33208  0.78907  0.05899  Biso   1.000  Ir
  Ir34     1.0000 0.66792  0.21093  0.55899  Biso   1.000  Ir
  Ir35     1.0000 0.21093  0.33208  0.30899  Biso   1.000  Ir
  Ir36     1.0000 0.78907  0.66792  0.80899  Biso   1.000  Ir
  Ir37     1.0000 0.66792  0.78907  0.94101  Biso   1.000  Ir
  Ir38     1.0000 0.33208  0.21093  0.44101  Biso   1.000  Ir
  Ir39     1.0000 0.78907  0.33208  0.69101  Biso   1.000  Ir
  Ir40     1.0000 0.21093  0.66792  0.19101  Biso   1.000  Ir
  Ir41     1.0000 0.33304  0.54033  0.05815  Biso   1.000  Ir
  Ir42     1.0000 0.66695  0.45967  0.55815  Biso   1.000  Ir
  Ir43     1.0000 0.45967  0.33304  0.30815  Biso   1.000  Ir
  Ir44     1.0000 0.54033  0.66695  0.80815  Biso   1.000  Ir
  Ir45     1.0000 0.66695  0.54033  0.94185  Biso   1.000  Ir
  Ir46     1.0000 0.33304  0.45967  0.44185  Biso   1.000  Ir
  Ir47     1.0000 0.54033  0.33304  0.69185  Biso   1.000  Ir
  Ir48     1.0000 0.45967  0.66695  0.19185  Biso   1.000  Ir
  Ir49     1.0000 0.52722  0.85965  0.12549  Biso   1.000  Ir
  Ir50     1.0000 0.47278  0.14035  0.62549  Biso   1.000  Ir
  Ir51     1.0000 0.14035  0.52722  0.37549  Biso   1.000  Ir
  Ir52     1.0000 0.85965  0.47278  0.87549  Biso   1.000  Ir
  Ir53     1.0000 0.47278  0.85965  0.87451  Biso   1.000  Ir
  Ir54     1.0000 0.52722  0.14035  0.37451  Biso   1.000  Ir
  Ir55     1.0000 0.85965  0.52722  0.62451  Biso   1.000  Ir
  Ir56     1.0000 0.14035  0.47278  0.12451  Biso   1.000  Ir
  Ir57     1.0000 0.52741  0.52741  0.37500  Biso   1.000  Ir
  Ir58     1.0000 0.47259  0.47259  0.87500  Biso   1.000  Ir
  Ir59     1.0000 0.47259  0.52741  0.62500  Biso   1.000  Ir
  Ir60     1.0000 0.52741  0.47259  0.12500  Biso   1.000  Ir
  Ir61     1.0000 0.13891  0.13891  0.37500  Biso   1.000  Ir
  Ir62     1.0000 0.86109  0.86109  0.87500  Biso   1.000  Ir
  Ir63     1.0000 0.86109  0.13891  0.62500  Biso   1.000  Ir
  Ir64     1.0000 0.13891  0.86109  0.12500  Biso   1.000  Ir
