data_image0
_cell_length_a       13.286
_cell_length_b       6.20359
_cell_length_c       9.53097
_cell_angle_alpha    90
_cell_angle_beta     107.465
_cell_angle_gamma    90

_symmetry_space_group_name_H-M    "P 1"
_symmetry_int_tables_number       1

loop_
  _symmetry_equiv_pos_as_xyz
  'x, y, z'

loop_
  _atom_site_label
  _atom_site_occupancy
  _atom_site_fract_x
  _atom_site_fract_y
  _atom_site_fract_z
  _atom_site_thermal_displace_type
  _atom_site_B_iso_or_equiv
  _atom_site_type_symbol
  O1       1.0000 0.68420  0.15819  0.67310  Biso   1.000  O
  O2       1.0000 0.81580  0.65819  0.82690  Biso   1.000  O
  O3       1.0000 0.81580  0.34181  0.32690  Biso   1.000  O
  O4       1.0000 0.68420  0.84182  0.17310  Biso   1.000  O
  O5       1.0000 0.50000  0.46918  0.25000  Biso   1.000  O
  O6       1.0000 0.50000  0.53082  0.75000  Biso   1.000  O
  O7       1.0000 0.75000  0.75000  0.50000  Biso   1.000  O
  O8       1.0000 0.75000  0.25000  0.00000  Biso   1.000  O
  O9       1.0000 0.18420  0.65819  0.67310  Biso   1.000  O
  O10      1.0000 0.31580  0.15819  0.82690  Biso   1.000  O
  O11      1.0000 0.31580  0.84182  0.32690  Biso   1.000  O
  O12      1.0000 0.18420  0.34181  0.17310  Biso   1.000  O
  O13      1.0000 0.00000  0.96918  0.25000  Biso   1.000  O
  O14      1.0000 0.00000  0.03082  0.75000  Biso   1.000  O
  O15      1.0000 0.25000  0.25000  0.50000  Biso   1.000  O
  O16      1.0000 0.25000  0.75000  0.00000  Biso   1.000  O
  Ir1      1.0000 0.81206  0.89692  0.68629  Biso   1.000  Ir
  Ir2      1.0000 0.68794  0.39692  0.81371  Biso   1.000  Ir
  Ir3      1.0000 0.68794  0.60308  0.31371  Biso   1.000  Ir
  Ir4      1.0000 0.81206  0.10308  0.18629  Biso   1.000  Ir
  Ir5      1.0000 0.31206  0.39692  0.68629  Biso   1.000  Ir
  Ir6      1.0000 0.18794  0.89692  0.81371  Biso   1.000  Ir
  Ir7      1.0000 0.18794  0.10308  0.31371  Biso   1.000  Ir
  Ir8      1.0000 0.31206  0.60308  0.18629  Biso   1.000  Ir
