data_image0
_cell_length_a       15.7156
_cell_length_b       15.7156
_cell_length_c       27.3535
_cell_angle_alpha    90
_cell_angle_beta     90
_cell_angle_gamma    120

_symmetry_space_group_name_H-M    "P 1"
_symmetry_int_tables_number       1

loop_
  _symmetry_equiv_pos_as_xyz
  'x, y, z'

loop_
  _atom_site_label
  _atom_site_occupancy
  _atom_site_fract_x
  _atom_site_fract_y
  _atom_site_fract_z
  _atom_site_thermal_displace_type
  _atom_site_B_iso_or_equiv
  _atom_site_type_symbol
  O1       1.0000 0.19625  0.48512  0.44181  Biso   1.000  O
  O2       1.0000 0.51488  0.71112  0.44181  Biso   1.000  O
  O3       1.0000 0.28888  0.80375  0.44181  Biso   1.000  O
  O4       1.0000 0.80375  0.51488  0.94181  Biso   1.000  O
  O5       1.0000 0.48512  0.28888  0.94181  Biso   1.000  O
  O6       1.0000 0.71112  0.19624  0.94181  Biso   1.000  O
  O7       1.0000 0.80375  0.51488  0.55819  Biso   1.000  O
  O8       1.0000 0.48512  0.28888  0.55819  Biso   1.000  O
  O9       1.0000 0.71112  0.19624  0.55819  Biso   1.000  O
  O10      1.0000 0.19625  0.48512  0.05819  Biso   1.000  O
  O11      1.0000 0.51488  0.71112  0.05819  Biso   1.000  O
  O12      1.0000 0.28888  0.80375  0.05819  Biso   1.000  O
  O13      1.0000 0.87606  0.82555  0.93415  Biso   1.000  O
  O14      1.0000 0.17445  0.05051  0.93415  Biso   1.000  O
  O15      1.0000 0.94949  0.12394  0.93415  Biso   1.000  O
  O16      1.0000 0.12394  0.17445  0.43416  Biso   1.000  O
  O17      1.0000 0.82555  0.94949  0.43416  Biso   1.000  O
  O18      1.0000 0.05051  0.87606  0.43416  Biso   1.000  O
  O19      1.0000 0.12394  0.17445  0.06585  Biso   1.000  O
  O20      1.0000 0.82555  0.94949  0.06585  Biso   1.000  O
  O21      1.0000 0.05051  0.87606  0.06585  Biso   1.000  O
  O22      1.0000 0.87606  0.82555  0.56585  Biso   1.000  O
  O23      1.0000 0.17445  0.05051  0.56585  Biso   1.000  O
  O24      1.0000 0.94949  0.12394  0.56585  Biso   1.000  O
  O25      1.0000 0.28159  0.79438  0.68865  Biso   1.000  O
  O26      1.0000 0.20562  0.48720  0.68865  Biso   1.000  O
  O27      1.0000 0.51280  0.71841  0.68865  Biso   1.000  O
  O28      1.0000 0.71841  0.20562  0.18865  Biso   1.000  O
  O29      1.0000 0.79438  0.51280  0.18865  Biso   1.000  O
  O30      1.0000 0.48720  0.28159  0.18865  Biso   1.000  O
  O31      1.0000 0.71841  0.20562  0.31135  Biso   1.000  O
  O32      1.0000 0.79438  0.51280  0.31135  Biso   1.000  O
  O33      1.0000 0.48720  0.28159  0.31135  Biso   1.000  O
  O34      1.0000 0.28159  0.79438  0.81135  Biso   1.000  O
  O35      1.0000 0.20562  0.48720  0.81135  Biso   1.000  O
  O36      1.0000 0.51280  0.71841  0.81135  Biso   1.000  O
  O37      1.0000 0.10258  0.74312  0.31136  Biso   1.000  O
  O38      1.0000 0.25688  0.35947  0.31136  Biso   1.000  O
  O39      1.0000 0.64053  0.89741  0.31136  Biso   1.000  O
  O40      1.0000 0.89742  0.25688  0.81136  Biso   1.000  O
  O41      1.0000 0.74312  0.64053  0.81136  Biso   1.000  O
  O42      1.0000 0.35947  0.10258  0.81136  Biso   1.000  O
  O43      1.0000 0.89742  0.25688  0.68864  Biso   1.000  O
  O44      1.0000 0.74312  0.64053  0.68864  Biso   1.000  O
  O45      1.0000 0.35947  0.10258  0.68864  Biso   1.000  O
  O46      1.0000 0.10258  0.74312  0.18864  Biso   1.000  O
  O47      1.0000 0.25688  0.35947  0.18864  Biso   1.000  O
  O48      1.0000 0.64053  0.89741  0.18864  Biso   1.000  O
  O49      1.0000 0.58907  0.02537  0.81128  Biso   1.000  O
  O50      1.0000 0.97463  0.56371  0.81128  Biso   1.000  O
  O51      1.0000 0.43629  0.41093  0.81128  Biso   1.000  O
  O52      1.0000 0.41093  0.97463  0.31128  Biso   1.000  O
  O53      1.0000 0.02537  0.43629  0.31128  Biso   1.000  O
  O54      1.0000 0.56371  0.58907  0.31128  Biso   1.000  O
  O55      1.0000 0.41093  0.97463  0.18872  Biso   1.000  O
  O56      1.0000 0.02537  0.43629  0.18872  Biso   1.000  O
  O57      1.0000 0.56371  0.58907  0.18872  Biso   1.000  O
  O58      1.0000 0.58907  0.02537  0.68872  Biso   1.000  O
  O59      1.0000 0.97463  0.56371  0.68872  Biso   1.000  O
  O60      1.0000 0.43629  0.41093  0.68872  Biso   1.000  O
  O61      1.0000 0.56413  0.59335  0.55691  Biso   1.000  O
  O62      1.0000 0.40665  0.97079  0.55691  Biso   1.000  O
  O63      1.0000 0.02921  0.43586  0.55691  Biso   1.000  O
  O64      1.0000 0.43586  0.40665  0.05691  Biso   1.000  O
  O65      1.0000 0.59335  0.02921  0.05691  Biso   1.000  O
  O66      1.0000 0.97079  0.56414  0.05691  Biso   1.000  O
  O67      1.0000 0.43586  0.40665  0.44309  Biso   1.000  O
  O68      1.0000 0.59335  0.02921  0.44309  Biso   1.000  O
  O69      1.0000 0.97079  0.56414  0.44309  Biso   1.000  O
  O70      1.0000 0.56413  0.59335  0.94309  Biso   1.000  O
  O71      1.0000 0.40665  0.97079  0.94309  Biso   1.000  O
  O72      1.0000 0.02921  0.43586  0.94309  Biso   1.000  O
  O73      1.0000 0.33333  0.66667  0.31170  Biso   1.000  O
  O74      1.0000 0.66667  0.33333  0.81170  Biso   1.000  O
  O75      1.0000 0.66667  0.33333  0.68830  Biso   1.000  O
  O76      1.0000 0.33333  0.66667  0.18830  Biso   1.000  O
  O77      1.0000 0.33333  0.66667  0.55724  Biso   1.000  O
  O78      1.0000 0.66667  0.33333  0.05724  Biso   1.000  O
  O79      1.0000 0.66667  0.33333  0.44276  Biso   1.000  O
  O80      1.0000 0.33333  0.66667  0.94276  Biso   1.000  O
  O81      1.0000 0.05093  0.87071  0.81073  Biso   1.000  O
  O82      1.0000 0.12929  0.18022  0.81073  Biso   1.000  O
  O83      1.0000 0.81978  0.94907  0.81073  Biso   1.000  O
  O84      1.0000 0.94907  0.12929  0.31073  Biso   1.000  O
  O85      1.0000 0.87071  0.81978  0.31073  Biso   1.000  O
  O86      1.0000 0.18022  0.05093  0.31073  Biso   1.000  O
  O87      1.0000 0.94907  0.12929  0.18927  Biso   1.000  O
  O88      1.0000 0.87071  0.81978  0.18927  Biso   1.000  O
  O89      1.0000 0.18022  0.05093  0.18927  Biso   1.000  O
  O90      1.0000 0.05093  0.87071  0.68927  Biso   1.000  O
  O91      1.0000 0.12929  0.18022  0.68927  Biso   1.000  O
  O92      1.0000 0.81978  0.94907  0.68927  Biso   1.000  O
  O93      1.0000 0.74980  0.64752  0.43581  Biso   1.000  O
  O94      1.0000 0.35248  0.10228  0.43581  Biso   1.000  O
  O95      1.0000 0.89772  0.25020  0.43581  Biso   1.000  O
  O96      1.0000 0.25020  0.35248  0.93581  Biso   1.000  O
  O97      1.0000 0.64752  0.89772  0.93581  Biso   1.000  O
  O98      1.0000 0.10228  0.74980  0.93581  Biso   1.000  O
  O99      1.0000 0.25020  0.35248  0.56419  Biso   1.000  O
  O100     1.0000 0.64752  0.89772  0.56419  Biso   1.000  O
  O101     1.0000 0.10228  0.74980  0.56419  Biso   1.000  O
  O102     1.0000 0.74980  0.64752  0.06419  Biso   1.000  O
  O103     1.0000 0.35248  0.10228  0.06419  Biso   1.000  O
  O104     1.0000 0.89772  0.25020  0.06419  Biso   1.000  O
  Ir1      1.0000 0.46074  0.84508  0.25000  Biso   1.000  Ir
  Ir2      1.0000 0.15492  0.61566  0.25000  Biso   1.000  Ir
  Ir3      1.0000 0.38434  0.53926  0.25000  Biso   1.000  Ir
  Ir4      1.0000 0.53926  0.15492  0.75000  Biso   1.000  Ir
  Ir5      1.0000 0.84508  0.38434  0.75000  Biso   1.000  Ir
  Ir6      1.0000 0.61566  0.46074  0.75000  Biso   1.000  Ir
  Ir7      1.0000 0.71528  0.78455  0.99996  Biso   1.000  Ir
  Ir8      1.0000 0.21545  0.93074  0.99996  Biso   1.000  Ir
  Ir9      1.0000 0.06926  0.28471  0.99996  Biso   1.000  Ir
  Ir10     1.0000 0.28471  0.21545  0.49996  Biso   1.000  Ir
  Ir11     1.0000 0.78455  0.06926  0.49996  Biso   1.000  Ir
  Ir12     1.0000 0.93074  0.71528  0.49996  Biso   1.000  Ir
  Ir13     1.0000 0.28471  0.21545  0.00004  Biso   1.000  Ir
  Ir14     1.0000 0.78455  0.06926  0.00004  Biso   1.000  Ir
  Ir15     1.0000 0.93074  0.71528  0.00004  Biso   1.000  Ir
  Ir16     1.0000 0.71528  0.78455  0.50004  Biso   1.000  Ir
  Ir17     1.0000 0.21545  0.93074  0.50004  Biso   1.000  Ir
  Ir18     1.0000 0.06926  0.28471  0.50004  Biso   1.000  Ir
  Ir19     1.0000 0.84730  0.36108  0.99937  Biso   1.000  Ir
  Ir20     1.0000 0.63892  0.48622  0.99937  Biso   1.000  Ir
  Ir21     1.0000 0.51378  0.15270  0.99937  Biso   1.000  Ir
  Ir22     1.0000 0.15270  0.63892  0.49937  Biso   1.000  Ir
  Ir23     1.0000 0.36108  0.51378  0.49937  Biso   1.000  Ir
  Ir24     1.0000 0.48622  0.84730  0.49937  Biso   1.000  Ir
  Ir25     1.0000 0.15270  0.63892  0.00063  Biso   1.000  Ir
  Ir26     1.0000 0.36108  0.51378  0.00063  Biso   1.000  Ir
  Ir27     1.0000 0.48622  0.84730  0.00063  Biso   1.000  Ir
  Ir28     1.0000 0.84730  0.36108  0.50063  Biso   1.000  Ir
  Ir29     1.0000 0.63892  0.48622  0.50063  Biso   1.000  Ir
  Ir30     1.0000 0.51378  0.15270  0.50063  Biso   1.000  Ir
  Ir31     1.0000 0.84681  0.38539  0.25000  Biso   1.000  Ir
  Ir32     1.0000 0.61461  0.46142  0.25000  Biso   1.000  Ir
  Ir33     1.0000 0.53858  0.15319  0.25000  Biso   1.000  Ir
  Ir34     1.0000 0.15319  0.61461  0.75000  Biso   1.000  Ir
  Ir35     1.0000 0.38539  0.53858  0.75000  Biso   1.000  Ir
  Ir36     1.0000 0.46142  0.84681  0.75000  Biso   1.000  Ir
  Ir37     1.0000 0.07851  0.30985  0.25000  Biso   1.000  Ir
  Ir38     1.0000 0.69015  0.76866  0.25000  Biso   1.000  Ir
  Ir39     1.0000 0.23134  0.92149  0.25000  Biso   1.000  Ir
  Ir40     1.0000 0.92149  0.69015  0.75000  Biso   1.000  Ir
  Ir41     1.0000 0.30985  0.23134  0.75000  Biso   1.000  Ir
  Ir42     1.0000 0.76866  0.07851  0.75000  Biso   1.000  Ir
  Ir43     1.0000 0.92363  0.69083  0.25000  Biso   1.000  Ir
  Ir44     1.0000 0.30917  0.23281  0.25000  Biso   1.000  Ir
  Ir45     1.0000 0.76719  0.07637  0.25000  Biso   1.000  Ir
  Ir46     1.0000 0.07637  0.30917  0.75000  Biso   1.000  Ir
  Ir47     1.0000 0.69083  0.76719  0.75000  Biso   1.000  Ir
  Ir48     1.0000 0.23281  0.92363  0.75000  Biso   1.000  Ir
  Ir49     1.0000 0.00000  0.00000  0.00000  Biso   1.000  Ir
  Ir50     1.0000 0.00000  0.00000  0.50000  Biso   1.000  Ir
  Ir51     1.0000 0.00000  0.00000  0.25000  Biso   1.000  Ir
  Ir52     1.0000 0.00000  0.00000  0.75000  Biso   1.000  Ir
