data_image0
_cell_length_a       5.36247
_cell_length_b       5.36248
_cell_length_c       55.8465
_cell_angle_alpha    90
_cell_angle_beta     90
_cell_angle_gamma    120

_symmetry_space_group_name_H-M    "P 1"
_symmetry_int_tables_number       1

loop_
  _symmetry_equiv_pos_as_xyz
  'x, y, z'

loop_
  _atom_site_label
  _atom_site_occupancy
  _atom_site_fract_x
  _atom_site_fract_y
  _atom_site_fract_z
  _atom_site_thermal_displace_type
  _atom_site_B_iso_or_equiv
  _atom_site_type_symbol
  Ir1      1.0000 0.33333  0.66667  0.03123  Biso   1.000  Ir
  Ir2      1.0000 0.66667  0.33333  0.53123  Biso   1.000  Ir
  Ir3      1.0000 0.33333  0.66667  0.65625  Biso   1.000  Ir
  Ir4      1.0000 0.66667  0.33333  0.15625  Biso   1.000  Ir
  Ir5      1.0000 0.33333  0.66667  0.28123  Biso   1.000  Ir
  Ir6      1.0000 0.66667  0.33333  0.78123  Biso   1.000  Ir
  Ir7      1.0000 0.33333  0.66667  0.90627  Biso   1.000  Ir
  Ir8      1.0000 0.66667  0.33333  0.40627  Biso   1.000  Ir
  O1       1.0000 0.33333  0.66667  0.50035  Biso   1.000  O
  O2       1.0000 0.66667  0.33333  0.00035  Biso   1.000  O
  O3       1.0000 0.00000  0.00000  0.06218  Biso   1.000  O
  O4       1.0000 0.00000  0.00000  0.56218  Biso   1.000  O
  O5       1.0000 0.33333  0.66667  0.12535  Biso   1.000  O
  O6       1.0000 0.66667  0.33333  0.62535  Biso   1.000  O
  O7       1.0000 0.00000  0.00000  0.18715  Biso   1.000  O
  O8       1.0000 0.00000  0.00000  0.68715  Biso   1.000  O
  O9       1.0000 0.33333  0.66667  0.75034  Biso   1.000  O
  O10      1.0000 0.66667  0.33333  0.25034  Biso   1.000  O
  O11      1.0000 0.00000  0.00000  0.31216  Biso   1.000  O
  O12      1.0000 0.00000  0.00000  0.81216  Biso   1.000  O
  O13      1.0000 0.33333  0.66667  0.37535  Biso   1.000  O
  O14      1.0000 0.66667  0.33333  0.87535  Biso   1.000  O
  O15      1.0000 0.00000  0.00000  0.43715  Biso   1.000  O
  O16      1.0000 0.00000  0.00000  0.93715  Biso   1.000  O
