data_image0
_cell_length_a       9.00644
_cell_length_b       9.00644
_cell_length_c       5.60764
_cell_angle_alpha    90
_cell_angle_beta     90
_cell_angle_gamma    120

_symmetry_space_group_name_H-M    "P 1"
_symmetry_int_tables_number       1

loop_
  _symmetry_equiv_pos_as_xyz
  'x, y, z'

loop_
  _atom_site_label
  _atom_site_occupancy
  _atom_site_fract_x
  _atom_site_fract_y
  _atom_site_fract_z
  _atom_site_thermal_displace_type
  _atom_site_B_iso_or_equiv
  _atom_site_type_symbol
  O1       1.0000 0.33190  0.99759  0.25501  Biso   1.000  O
  O2       1.0000 0.00241  0.33432  0.25501  Biso   1.000  O
  O3       1.0000 0.66568  0.66810  0.25501  Biso   1.000  O
  O4       1.0000 0.66810  0.00241  0.74499  Biso   1.000  O
  O5       1.0000 0.99759  0.66569  0.74499  Biso   1.000  O
  O6       1.0000 0.33432  0.33190  0.74499  Biso   1.000  O
  Ir1      1.0000 0.33333  0.66667  0.99656  Biso   1.000  Ir
  Ir2      1.0000 0.66667  0.33333  0.00344  Biso   1.000  Ir
  Ir3      1.0000 0.00000  0.00000  0.00000  Biso   1.000  Ir
