data_image0
_cell_length_a       21.055
_cell_length_b       21.0549
_cell_length_c       50.7688
_cell_angle_alpha    90
_cell_angle_beta     90
_cell_angle_gamma    120

_symmetry_space_group_name_H-M    "P 1"
_symmetry_int_tables_number       1

loop_
  _symmetry_equiv_pos_as_xyz
  'x, y, z'

loop_
  _atom_site_label
  _atom_site_occupancy
  _atom_site_fract_x
  _atom_site_fract_y
  _atom_site_fract_z
  _atom_site_thermal_displace_type
  _atom_site_B_iso_or_equiv
  _atom_site_type_symbol
  O1       1.0000 0.21753  0.29085  0.25858  Biso   1.000  O
  O2       1.0000 0.70915  0.92668  0.25858  Biso   1.000  O
  O3       1.0000 0.07332  0.78247  0.25858  Biso   1.000  O
  O4       1.0000 0.44914  0.04248  0.07475  Biso   1.000  O
  O5       1.0000 0.95752  0.40666  0.07475  Biso   1.000  O
  O6       1.0000 0.59334  0.55086  0.07475  Biso   1.000  O
  O7       1.0000 0.96201  0.59357  0.08659  Biso   1.000  O
  O8       1.0000 0.40643  0.36845  0.08659  Biso   1.000  O
  O9       1.0000 0.63155  0.03799  0.08659  Biso   1.000  O
  O10      1.0000 0.70465  0.73977  0.24674  Biso   1.000  O
  O11      1.0000 0.26023  0.96489  0.24674  Biso   1.000  O
  O12      1.0000 0.03511  0.29535  0.24674  Biso   1.000  O
  O13      1.0000 0.27885  0.96574  0.96879  Biso   1.000  O
  O14      1.0000 0.03426  0.31310  0.96879  Biso   1.000  O
  O15      1.0000 0.68690  0.72115  0.96879  Biso   1.000  O
  O16      1.0000 0.38782  0.36759  0.36455  Biso   1.000  O
  O17      1.0000 0.63241  0.02023  0.36455  Biso   1.000  O
  O18      1.0000 0.97977  0.61218  0.36455  Biso   1.000  O
  O19      1.0000 0.56770  0.44848  0.32768  Biso   1.000  O
  O20      1.0000 0.55152  0.11922  0.32768  Biso   1.000  O
  O21      1.0000 0.88078  0.43230  0.32768  Biso   1.000  O
  O22      1.0000 0.09897  0.88485  0.00566  Biso   1.000  O
  O23      1.0000 0.11515  0.21412  0.00566  Biso   1.000  O
  O24      1.0000 0.78589  0.90103  0.00566  Biso   1.000  O
  O25      1.0000 0.40426  0.61140  0.89302  Biso   1.000  O
  O26      1.0000 0.38860  0.79287  0.89302  Biso   1.000  O
  O27      1.0000 0.20713  0.59574  0.89302  Biso   1.000  O
  O28      1.0000 0.26240  0.72194  0.44031  Biso   1.000  O
  O29      1.0000 0.27807  0.54047  0.44031  Biso   1.000  O
  O30      1.0000 0.45953  0.73760  0.44031  Biso   1.000  O
  O31      1.0000 0.19373  0.21642  0.08427  Biso   1.000  O
  O32      1.0000 0.78358  0.97731  0.08427  Biso   1.000  O
  O33      1.0000 0.02269  0.80628  0.08427  Biso   1.000  O
  O34      1.0000 0.47294  0.11692  0.24907  Biso   1.000  O
  O35      1.0000 0.88308  0.35602  0.24907  Biso   1.000  O
  O36      1.0000 0.64398  0.52706  0.24907  Biso   1.000  O
  O37      1.0000 0.33333  0.66667  0.84185  Biso   1.000  O
  O38      1.0000 0.33333  0.66667  0.49148  Biso   1.000  O
  O39      1.0000 0.42906  0.64164  0.79091  Biso   1.000  O
  O40      1.0000 0.35836  0.78741  0.79091  Biso   1.000  O
  O41      1.0000 0.21259  0.57094  0.79091  Biso   1.000  O
  O42      1.0000 0.23761  0.69169  0.54243  Biso   1.000  O
  O43      1.0000 0.30831  0.54592  0.54243  Biso   1.000  O
  O44      1.0000 0.45408  0.76239  0.54243  Biso   1.000  O
  O45      1.0000 0.52849  0.68209  0.16246  Biso   1.000  O
  O46      1.0000 0.31791  0.84641  0.16246  Biso   1.000  O
  O47      1.0000 0.15360  0.47151  0.16246  Biso   1.000  O
  O48      1.0000 0.13818  0.65125  0.17087  Biso   1.000  O
  O49      1.0000 0.34875  0.48693  0.17087  Biso   1.000  O
  O50      1.0000 0.51307  0.86182  0.17087  Biso   1.000  O
  O51      1.0000 0.98851  0.45898  0.19627  Biso   1.000  O
  O52      1.0000 0.54102  0.52953  0.19627  Biso   1.000  O
  O53      1.0000 0.47047  0.01149  0.19627  Biso   1.000  O
  O54      1.0000 0.67816  0.87436  0.13706  Biso   1.000  O
  O55      1.0000 0.12565  0.80380  0.13706  Biso   1.000  O
  O56      1.0000 0.19620  0.32184  0.13706  Biso   1.000  O
  O57      1.0000 0.18727  0.34584  0.92518  Biso   1.000  O
  O58      1.0000 0.65416  0.84143  0.92518  Biso   1.000  O
  O59      1.0000 0.15857  0.81273  0.92518  Biso   1.000  O
  O60      1.0000 0.47939  0.98749  0.40815  Biso   1.000  O
  O61      1.0000 0.01251  0.49190  0.40815  Biso   1.000  O
  O62      1.0000 0.50810  0.52060  0.40815  Biso   1.000  O
  O63      1.0000 0.96081  0.57233  0.24240  Biso   1.000  O
  O64      1.0000 0.42767  0.38848  0.24240  Biso   1.000  O
  O65      1.0000 0.61152  0.03919  0.24240  Biso   1.000  O
  O66      1.0000 0.70585  0.76100  0.09093  Biso   1.000  O
  O67      1.0000 0.23900  0.94485  0.09093  Biso   1.000  O
  O68      1.0000 0.05515  0.29415  0.09093  Biso   1.000  O
  O69      1.0000 0.51379  0.50537  0.13397  Biso   1.000  O
  O70      1.0000 0.49463  0.00842  0.13397  Biso   1.000  O
  O71      1.0000 0.99158  0.48621  0.13397  Biso   1.000  O
  O72      1.0000 0.15288  0.82796  0.19937  Biso   1.000  O
  O73      1.0000 0.17204  0.32492  0.19937  Biso   1.000  O
  O74      1.0000 0.67508  0.84712  0.19937  Biso   1.000  O
  O75      1.0000 0.70263  0.69946  0.03053  Biso   1.000  O
  O76      1.0000 0.30054  0.00317  0.03053  Biso   1.000  O
  O77      1.0000 0.99683  0.29737  0.03053  Biso   1.000  O
  O78      1.0000 0.96403  0.63387  0.30280  Biso   1.000  O
  O79      1.0000 0.36613  0.33016  0.30280  Biso   1.000  O
  O80      1.0000 0.66984  0.03597  0.30280  Biso   1.000  O
  O81      1.0000 0.88420  0.62419  0.59191  Biso   1.000  O
  O82      1.0000 0.37581  0.26001  0.59191  Biso   1.000  O
  O83      1.0000 0.73999  0.11580  0.59191  Biso   1.000  O
  O84      1.0000 0.11580  0.37581  0.40809  Biso   1.000  O
  O85      1.0000 0.62419  0.73999  0.40809  Biso   1.000  O
  O86      1.0000 0.26001  0.88420  0.40809  Biso   1.000  O
  O87      1.0000 0.62868  0.92690  0.41992  Biso   1.000  O
  O88      1.0000 0.07310  0.70178  0.41992  Biso   1.000  O
  O89      1.0000 0.29822  0.37132  0.41992  Biso   1.000  O
  O90      1.0000 0.37132  0.07310  0.58008  Biso   1.000  O
  O91      1.0000 0.92690  0.29822  0.58008  Biso   1.000  O
  O92      1.0000 0.70178  0.62868  0.58008  Biso   1.000  O
  O93      1.0000 0.94551  0.29908  0.30212  Biso   1.000  O
  O94      1.0000 0.70092  0.64644  0.30212  Biso   1.000  O
  O95      1.0000 0.35356  0.05449  0.30212  Biso   1.000  O
  O96      1.0000 0.05449  0.70092  0.69788  Biso   1.000  O
  O97      1.0000 0.29908  0.35356  0.69788  Biso   1.000  O
  O98      1.0000 0.64644  0.94551  0.69788  Biso   1.000  O
  O99      1.0000 0.23437  0.78182  0.66101  Biso   1.000  O
  O100     1.0000 0.21818  0.45255  0.66101  Biso   1.000  O
  O101     1.0000 0.54745  0.76563  0.66101  Biso   1.000  O
  O102     1.0000 0.76563  0.21819  0.33899  Biso   1.000  O
  O103     1.0000 0.78181  0.54745  0.33899  Biso   1.000  O
  O104     1.0000 0.45255  0.23437  0.33899  Biso   1.000  O
  O105     1.0000 0.07093  0.94473  0.22635  Biso   1.000  O
  O106     1.0000 0.05527  0.12620  0.22635  Biso   1.000  O
  O107     1.0000 0.87380  0.92907  0.22635  Biso   1.000  O
  O108     1.0000 0.92907  0.05527  0.77364  Biso   1.000  O
  O109     1.0000 0.94473  0.87380  0.77364  Biso   1.000  O
  O110     1.0000 0.12620  0.07093  0.77364  Biso   1.000  O
  O111     1.0000 0.86039  0.54975  0.41760  Biso   1.000  O
  O112     1.0000 0.45025  0.31064  0.41760  Biso   1.000  O
  O113     1.0000 0.68936  0.13961  0.41760  Biso   1.000  O
  O114     1.0000 0.13961  0.45025  0.58240  Biso   1.000  O
  O115     1.0000 0.54975  0.68936  0.58240  Biso   1.000  O
  O116     1.0000 0.31064  0.86039  0.58240  Biso   1.000  O
  O117     1.0000 0.00000  0.00000  0.17519  Biso   1.000  O
  O118     1.0000 0.00000  0.00000  0.82481  Biso   1.000  O
  O119     1.0000 0.09572  0.97498  0.12424  Biso   1.000  O
  O120     1.0000 0.02502  0.12075  0.12424  Biso   1.000  O
  O121     1.0000 0.87925  0.90428  0.12424  Biso   1.000  O
  O122     1.0000 0.90428  0.02502  0.87576  Biso   1.000  O
  O123     1.0000 0.97498  0.87926  0.87576  Biso   1.000  O
  O124     1.0000 0.12075  0.09572  0.87576  Biso   1.000  O
  O125     1.0000 0.19516  0.01542  0.49580  Biso   1.000  O
  O126     1.0000 0.98458  0.17974  0.49580  Biso   1.000  O
  O127     1.0000 0.82026  0.80484  0.49580  Biso   1.000  O
  O128     1.0000 0.80484  0.98458  0.50420  Biso   1.000  O
  O129     1.0000 0.01542  0.82026  0.50420  Biso   1.000  O
  O130     1.0000 0.17974  0.19516  0.50420  Biso   1.000  O
  O131     1.0000 0.65518  0.79231  0.52960  Biso   1.000  O
  O132     1.0000 0.20769  0.86286  0.52960  Biso   1.000  O
  O133     1.0000 0.13714  0.34482  0.52960  Biso   1.000  O
  O134     1.0000 0.34482  0.20769  0.47040  Biso   1.000  O
  O135     1.0000 0.79231  0.13714  0.47040  Biso   1.000  O
  O136     1.0000 0.86286  0.65518  0.47040  Biso   1.000  O
  O137     1.0000 0.85394  0.67917  0.25852  Biso   1.000  O
  O138     1.0000 0.32083  0.17476  0.25852  Biso   1.000  O
  O139     1.0000 0.82524  0.14606  0.25852  Biso   1.000  O
  O140     1.0000 0.14606  0.32083  0.74148  Biso   1.000  O
  O141     1.0000 0.67917  0.82524  0.74148  Biso   1.000  O
  O142     1.0000 0.17476  0.85394  0.74148  Biso   1.000  O
  O143     1.0000 0.62748  0.90567  0.57574  Biso   1.000  O
  O144     1.0000 0.09433  0.72181  0.57574  Biso   1.000  O
  O145     1.0000 0.27819  0.37252  0.57574  Biso   1.000  O
  O146     1.0000 0.37252  0.09433  0.42426  Biso   1.000  O
  O147     1.0000 0.90567  0.27819  0.42426  Biso   1.000  O
  O148     1.0000 0.72181  0.62748  0.42426  Biso   1.000  O
  O149     1.0000 0.18045  0.83871  0.46730  Biso   1.000  O
  O150     1.0000 0.16129  0.34175  0.46730  Biso   1.000  O
  O151     1.0000 0.65825  0.81955  0.46730  Biso   1.000  O
  O152     1.0000 0.81955  0.16130  0.53270  Biso   1.000  O
  O153     1.0000 0.83870  0.65825  0.53270  Biso   1.000  O
  O154     1.0000 0.34175  0.18045  0.53270  Biso   1.000  O
  O155     1.0000 0.36930  0.03280  0.36387  Biso   1.000  O
  O156     1.0000 0.96720  0.33650  0.36387  Biso   1.000  O
  O157     1.0000 0.66350  0.63070  0.36387  Biso   1.000  O
  O158     1.0000 0.63070  0.96720  0.63613  Biso   1.000  O
  O159     1.0000 0.03280  0.66350  0.63613  Biso   1.000  O
  O160     1.0000 0.33650  0.36930  0.63613  Biso   1.000  O
  O161     1.0000 0.55086  0.95752  0.92524  Biso   1.000  O
  O162     1.0000 0.04248  0.59334  0.92524  Biso   1.000  O
  O163     1.0000 0.40666  0.44914  0.92524  Biso   1.000  O
  O164     1.0000 0.78247  0.70915  0.74142  Biso   1.000  O
  O165     1.0000 0.29085  0.07332  0.74142  Biso   1.000  O
  O166     1.0000 0.92668  0.21753  0.74142  Biso   1.000  O
  O167     1.0000 0.29535  0.26023  0.75326  Biso   1.000  O
  O168     1.0000 0.73977  0.03511  0.75326  Biso   1.000  O
  O169     1.0000 0.96488  0.70465  0.75326  Biso   1.000  O
  O170     1.0000 0.03799  0.40644  0.91341  Biso   1.000  O
  O171     1.0000 0.59356  0.63155  0.91341  Biso   1.000  O
  O172     1.0000 0.36845  0.96201  0.91341  Biso   1.000  O
  O173     1.0000 0.61218  0.63241  0.63545  Biso   1.000  O
  O174     1.0000 0.36759  0.97977  0.63545  Biso   1.000  O
  O175     1.0000 0.02023  0.38782  0.63545  Biso   1.000  O
  O176     1.0000 0.72115  0.03426  0.03121  Biso   1.000  O
  O177     1.0000 0.96574  0.68690  0.03121  Biso   1.000  O
  O178     1.0000 0.31310  0.27885  0.03121  Biso   1.000  O
  O179     1.0000 0.90103  0.11515  0.99434  Biso   1.000  O
  O180     1.0000 0.88485  0.78588  0.99434  Biso   1.000  O
  O181     1.0000 0.21411  0.09897  0.99434  Biso   1.000  O
  O182     1.0000 0.43230  0.55152  0.67232  Biso   1.000  O
  O183     1.0000 0.44848  0.88078  0.67232  Biso   1.000  O
  O184     1.0000 0.11922  0.56770  0.67232  Biso   1.000  O
  O185     1.0000 0.73760  0.27807  0.55969  Biso   1.000  O
  O186     1.0000 0.72193  0.45953  0.55969  Biso   1.000  O
  O187     1.0000 0.54047  0.26240  0.55969  Biso   1.000  O
  O188     1.0000 0.59574  0.38860  0.10698  Biso   1.000  O
  O189     1.0000 0.61140  0.20713  0.10698  Biso   1.000  O
  O190     1.0000 0.79287  0.40426  0.10698  Biso   1.000  O
  O191     1.0000 0.52706  0.88308  0.75093  Biso   1.000  O
  O192     1.0000 0.11692  0.64398  0.75093  Biso   1.000  O
  O193     1.0000 0.35602  0.47294  0.75093  Biso   1.000  O
  O194     1.0000 0.80627  0.78358  0.91573  Biso   1.000  O
  O195     1.0000 0.21642  0.02269  0.91573  Biso   1.000  O
  O196     1.0000 0.97731  0.19373  0.91573  Biso   1.000  O
  O197     1.0000 0.66667  0.33333  0.50852  Biso   1.000  O
  O198     1.0000 0.66667  0.33333  0.15815  Biso   1.000  O
  O199     1.0000 0.76239  0.30831  0.45758  Biso   1.000  O
  O200     1.0000 0.69169  0.45408  0.45758  Biso   1.000  O
  O201     1.0000 0.54592  0.23761  0.45758  Biso   1.000  O
  O202     1.0000 0.57094  0.35836  0.20909  Biso   1.000  O
  O203     1.0000 0.64164  0.21259  0.20909  Biso   1.000  O
  O204     1.0000 0.78741  0.42906  0.20909  Biso   1.000  O
  O205     1.0000 0.86182  0.34875  0.82913  Biso   1.000  O
  O206     1.0000 0.65125  0.51307  0.82913  Biso   1.000  O
  O207     1.0000 0.48693  0.13818  0.82913  Biso   1.000  O
  O208     1.0000 0.47151  0.31791  0.83754  Biso   1.000  O
  O209     1.0000 0.68209  0.15360  0.83754  Biso   1.000  O
  O210     1.0000 0.84640  0.52849  0.83754  Biso   1.000  O
  O211     1.0000 0.32184  0.12565  0.86294  Biso   1.000  O
  O212     1.0000 0.87435  0.19620  0.86294  Biso   1.000  O
  O213     1.0000 0.80380  0.67816  0.86294  Biso   1.000  O
  O214     1.0000 0.01149  0.54102  0.80373  Biso   1.000  O
  O215     1.0000 0.45898  0.47047  0.80373  Biso   1.000  O
  O216     1.0000 0.52953  0.98851  0.80373  Biso   1.000  O
  O217     1.0000 0.52060  0.01251  0.59185  Biso   1.000  O
  O218     1.0000 0.98749  0.50810  0.59185  Biso   1.000  O
  O219     1.0000 0.49190  0.47940  0.59185  Biso   1.000  O
  O220     1.0000 0.81273  0.65416  0.07482  Biso   1.000  O
  O221     1.0000 0.34584  0.15857  0.07482  Biso   1.000  O
  O222     1.0000 0.84143  0.18727  0.07482  Biso   1.000  O
  O223     1.0000 0.29415  0.23900  0.90907  Biso   1.000  O
  O224     1.0000 0.76100  0.05515  0.90907  Biso   1.000  O
  O225     1.0000 0.94485  0.70585  0.90907  Biso   1.000  O
  O226     1.0000 0.03919  0.42767  0.75760  Biso   1.000  O
  O227     1.0000 0.57233  0.61152  0.75760  Biso   1.000  O
  O228     1.0000 0.38848  0.96081  0.75760  Biso   1.000  O
  O229     1.0000 0.84712  0.17204  0.80063  Biso   1.000  O
  O230     1.0000 0.82796  0.67508  0.80063  Biso   1.000  O
  O231     1.0000 0.32492  0.15288  0.80063  Biso   1.000  O
  O232     1.0000 0.48621  0.49463  0.86603  Biso   1.000  O
  O233     1.0000 0.50537  0.99159  0.86603  Biso   1.000  O
  O234     1.0000 0.00842  0.51379  0.86603  Biso   1.000  O
  O235     1.0000 0.03597  0.36613  0.69720  Biso   1.000  O
  O236     1.0000 0.63387  0.66984  0.69720  Biso   1.000  O
  O237     1.0000 0.33016  0.96403  0.69720  Biso   1.000  O
  O238     1.0000 0.29737  0.30054  0.96947  Biso   1.000  O
  O239     1.0000 0.69946  0.99683  0.96947  Biso   1.000  O
  O240     1.0000 0.00317  0.70263  0.96947  Biso   1.000  O
  Ir1      1.0000 0.12084  0.88205  0.10921  Biso   1.000  Ir
  Ir2      1.0000 0.11795  0.23879  0.10921  Biso   1.000  Ir
  Ir3      1.0000 0.76121  0.87916  0.10921  Biso   1.000  Ir
  Ir4      1.0000 0.54583  0.45129  0.22413  Biso   1.000  Ir
  Ir5      1.0000 0.54871  0.09455  0.22413  Biso   1.000  Ir
  Ir6      1.0000 0.90546  0.45417  0.22413  Biso   1.000  Ir
  Ir7      1.0000 0.92248  0.27371  0.26412  Biso   1.000  Ir
  Ir8      1.0000 0.72629  0.64877  0.26412  Biso   1.000  Ir
  Ir9      1.0000 0.35123  0.07752  0.26412  Biso   1.000  Ir
  Ir10     1.0000 0.74419  0.05963  0.06921  Biso   1.000  Ir
  Ir11     1.0000 0.94037  0.68456  0.06921  Biso   1.000  Ir
  Ir12     1.0000 0.31544  0.25581  0.06921  Biso   1.000  Ir
  Ir13     1.0000 0.96149  0.66576  0.26569  Biso   1.000  Ir
  Ir14     1.0000 0.33424  0.29573  0.26569  Biso   1.000  Ir
  Ir15     1.0000 0.70427  0.03851  0.26569  Biso   1.000  Ir
  Ir16     1.0000 0.70518  0.66758  0.06765  Biso   1.000  Ir
  Ir17     1.0000 0.33243  0.03760  0.06765  Biso   1.000  Ir
  Ir18     1.0000 0.96240  0.29482  0.06765  Biso   1.000  Ir
  Ir19     1.0000 0.65507  0.09858  0.33343  Biso   1.000  Ir
  Ir20     1.0000 0.90141  0.55648  0.33343  Biso   1.000  Ir
  Ir21     1.0000 0.44352  0.34493  0.33343  Biso   1.000  Ir
  Ir22     1.0000 0.01160  0.23475  0.99990  Biso   1.000  Ir
  Ir23     1.0000 0.76525  0.77685  0.99990  Biso   1.000  Ir
  Ir24     1.0000 0.22315  0.98840  0.99990  Biso   1.000  Ir
  Ir25     1.0000 0.33333  0.66667  0.45307  Biso   1.000  Ir
  Ir26     1.0000 0.33333  0.66667  0.88026  Biso   1.000  Ir
  Ir27     1.0000 0.21672  0.40148  0.16767  Biso   1.000  Ir
  Ir28     1.0000 0.59852  0.81524  0.16767  Biso   1.000  Ir
  Ir29     1.0000 0.18476  0.78328  0.16767  Biso   1.000  Ir
  Ir30     1.0000 0.44995  0.93186  0.16567  Biso   1.000  Ir
  Ir31     1.0000 0.06814  0.51809  0.16567  Biso   1.000  Ir
  Ir32     1.0000 0.48191  0.55005  0.16567  Biso   1.000  Ir
  Ir33     1.0000 0.74122  0.86134  0.23242  Biso   1.000  Ir
  Ir34     1.0000 0.13866  0.87989  0.23242  Biso   1.000  Ir
  Ir35     1.0000 0.12011  0.25878  0.23242  Biso   1.000  Ir
  Ir36     1.0000 0.92544  0.47200  0.10092  Biso   1.000  Ir
  Ir37     1.0000 0.52800  0.45345  0.10092  Biso   1.000  Ir
  Ir38     1.0000 0.54655  0.07456  0.10092  Biso   1.000  Ir
  Ir39     1.0000 0.33333  0.66667  0.80351  Biso   1.000  Ir
  Ir40     1.0000 0.33333  0.66667  0.52982  Biso   1.000  Ir
  Ir41     1.0000 0.78750  0.21538  0.44254  Biso   1.000  Ir
  Ir42     1.0000 0.78462  0.57212  0.44254  Biso   1.000  Ir
  Ir43     1.0000 0.42788  0.21250  0.44254  Biso   1.000  Ir
  Ir44     1.0000 0.21250  0.78462  0.55746  Biso   1.000  Ir
  Ir45     1.0000 0.21538  0.42788  0.55746  Biso   1.000  Ir
  Ir46     1.0000 0.57212  0.78750  0.55746  Biso   1.000  Ir
  Ir47     1.0000 0.58915  0.60704  0.59745  Biso   1.000  Ir
  Ir48     1.0000 0.39296  0.98210  0.59745  Biso   1.000  Ir
  Ir49     1.0000 0.01790  0.41086  0.59745  Biso   1.000  Ir
  Ir50     1.0000 0.41085  0.39296  0.40255  Biso   1.000  Ir
  Ir51     1.0000 0.60704  0.01790  0.40255  Biso   1.000  Ir
  Ir52     1.0000 0.98210  0.58915  0.40255  Biso   1.000  Ir
  Ir53     1.0000 0.62816  0.99909  0.59902  Biso   1.000  Ir
  Ir54     1.0000 0.00091  0.62906  0.59902  Biso   1.000  Ir
  Ir55     1.0000 0.37093  0.37184  0.59902  Biso   1.000  Ir
  Ir56     1.0000 0.37184  0.00091  0.40098  Biso   1.000  Ir
  Ir57     1.0000 0.99909  0.37094  0.40098  Biso   1.000  Ir
  Ir58     1.0000 0.62906  0.62816  0.40098  Biso   1.000  Ir
  Ir59     1.0000 0.32173  0.43192  0.66677  Biso   1.000  Ir
  Ir60     1.0000 0.56808  0.88982  0.66677  Biso   1.000  Ir
  Ir61     1.0000 0.11018  0.67827  0.66677  Biso   1.000  Ir
  Ir62     1.0000 0.67827  0.56808  0.33323  Biso   1.000  Ir
  Ir63     1.0000 0.43192  0.11018  0.33323  Biso   1.000  Ir
  Ir64     1.0000 0.88982  0.32173  0.33323  Biso   1.000  Ir
  Ir65     1.0000 0.00000  0.00000  0.78641  Biso   1.000  Ir
  Ir66     1.0000 0.00000  0.00000  0.21359  Biso   1.000  Ir
  Ir67     1.0000 0.88339  0.73481  0.50100  Biso   1.000  Ir
  Ir68     1.0000 0.26519  0.14858  0.50100  Biso   1.000  Ir
  Ir69     1.0000 0.85142  0.11661  0.50100  Biso   1.000  Ir
  Ir70     1.0000 0.11661  0.26519  0.49900  Biso   1.000  Ir
  Ir71     1.0000 0.73481  0.85142  0.49900  Biso   1.000  Ir
  Ir72     1.0000 0.14858  0.88339  0.49900  Biso   1.000  Ir
  Ir73     1.0000 0.40789  0.19467  0.56575  Biso   1.000  Ir
  Ir74     1.0000 0.80533  0.21322  0.56575  Biso   1.000  Ir
  Ir75     1.0000 0.78678  0.59211  0.56575  Biso   1.000  Ir
  Ir76     1.0000 0.59211  0.80533  0.43425  Biso   1.000  Ir
  Ir77     1.0000 0.19467  0.78678  0.43425  Biso   1.000  Ir
  Ir78     1.0000 0.21322  0.40789  0.43425  Biso   1.000  Ir
  Ir79     1.0000 0.00000  0.00000  0.13685  Biso   1.000  Ir
  Ir80     1.0000 0.00000  0.00000  0.86315  Biso   1.000  Ir
  Ir81     1.0000 0.45417  0.54872  0.77587  Biso   1.000  Ir
  Ir82     1.0000 0.45129  0.90546  0.77587  Biso   1.000  Ir
  Ir83     1.0000 0.09455  0.54583  0.77587  Biso   1.000  Ir
  Ir84     1.0000 0.87916  0.11795  0.89079  Biso   1.000  Ir
  Ir85     1.0000 0.88205  0.76121  0.89079  Biso   1.000  Ir
  Ir86     1.0000 0.23879  0.12084  0.89079  Biso   1.000  Ir
  Ir87     1.0000 0.25581  0.94037  0.93079  Biso   1.000  Ir
  Ir88     1.0000 0.05963  0.31544  0.93079  Biso   1.000  Ir
  Ir89     1.0000 0.68456  0.74419  0.93079  Biso   1.000  Ir
  Ir90     1.0000 0.07752  0.72629  0.73588  Biso   1.000  Ir
  Ir91     1.0000 0.27371  0.35123  0.73588  Biso   1.000  Ir
  Ir92     1.0000 0.64877  0.92248  0.73588  Biso   1.000  Ir
  Ir93     1.0000 0.29482  0.33243  0.93235  Biso   1.000  Ir
  Ir94     1.0000 0.66757  0.96240  0.93235  Biso   1.000  Ir
  Ir95     1.0000 0.03760  0.70518  0.93235  Biso   1.000  Ir
  Ir96     1.0000 0.03851  0.33424  0.73431  Biso   1.000  Ir
  Ir97     1.0000 0.66576  0.70427  0.73431  Biso   1.000  Ir
  Ir98     1.0000 0.29573  0.96149  0.73431  Biso   1.000  Ir
  Ir99     1.0000 0.98840  0.76525  0.00010  Biso   1.000  Ir
  Ir100    1.0000 0.23475  0.22315  0.00010  Biso   1.000  Ir
  Ir101    1.0000 0.77685  0.01160  0.00010  Biso   1.000  Ir
  Ir102    1.0000 0.34493  0.90142  0.66657  Biso   1.000  Ir
  Ir103    1.0000 0.09858  0.44352  0.66657  Biso   1.000  Ir
  Ir104    1.0000 0.55648  0.65507  0.66657  Biso   1.000  Ir
  Ir105    1.0000 0.66667  0.33333  0.11974  Biso   1.000  Ir
  Ir106    1.0000 0.66667  0.33333  0.54693  Biso   1.000  Ir
  Ir107    1.0000 0.55005  0.06814  0.83433  Biso   1.000  Ir
  Ir108    1.0000 0.93185  0.48191  0.83433  Biso   1.000  Ir
  Ir109    1.0000 0.51809  0.44995  0.83433  Biso   1.000  Ir
  Ir110    1.0000 0.78328  0.59852  0.83234  Biso   1.000  Ir
  Ir111    1.0000 0.40148  0.18476  0.83234  Biso   1.000  Ir
  Ir112    1.0000 0.81524  0.21672  0.83234  Biso   1.000  Ir
  Ir113    1.0000 0.07456  0.52800  0.89908  Biso   1.000  Ir
  Ir114    1.0000 0.47200  0.54655  0.89908  Biso   1.000  Ir
  Ir115    1.0000 0.45345  0.92544  0.89908  Biso   1.000  Ir
  Ir116    1.0000 0.25878  0.13866  0.76758  Biso   1.000  Ir
  Ir117    1.0000 0.86134  0.12011  0.76758  Biso   1.000  Ir
  Ir118    1.0000 0.87989  0.74122  0.76758  Biso   1.000  Ir
  Ir119    1.0000 0.66667  0.33333  0.47018  Biso   1.000  Ir
  Ir120    1.0000 0.66667  0.33333  0.19648  Biso   1.000  Ir
