data_image0
_cell_length_a       9.18905
_cell_length_b       17.5227
_cell_length_c       23.1575
_cell_angle_alpha    90
_cell_angle_beta     90
_cell_angle_gamma    90

_symmetry_space_group_name_H-M    "P 1"
_symmetry_int_tables_number       1

loop_
  _symmetry_equiv_pos_as_xyz
  'x, y, z'

loop_
  _atom_site_label
  _atom_site_occupancy
  _atom_site_fract_x
  _atom_site_fract_y
  _atom_site_fract_z
  _atom_site_thermal_displace_type
  _atom_site_B_iso_or_equiv
  _atom_site_type_symbol
  O1       1.0000 0.17519  0.22337  0.24762  Biso   1.000  O
  O2       1.0000 0.82481  0.77663  0.24762  Biso   1.000  O
  O3       1.0000 0.17519  0.77663  0.24762  Biso   1.000  O
  O4       1.0000 0.82481  0.22337  0.24762  Biso   1.000  O
  O5       1.0000 0.74961  0.76761  0.87864  Biso   1.000  O
  O6       1.0000 0.25039  0.23239  0.87864  Biso   1.000  O
  O7       1.0000 0.74961  0.23239  0.87864  Biso   1.000  O
  O8       1.0000 0.25039  0.76761  0.87864  Biso   1.000  O
  O9       1.0000 0.00000  0.70601  0.79406  Biso   1.000  O
  O10      1.0000 0.00000  0.29399  0.79406  Biso   1.000  O
  O11      1.0000 0.25111  0.09103  0.33779  Biso   1.000  O
  O12      1.0000 0.74889  0.90897  0.33779  Biso   1.000  O
  O13      1.0000 0.25111  0.90897  0.33779  Biso   1.000  O
  O14      1.0000 0.74889  0.09103  0.33779  Biso   1.000  O
  O15      1.0000 0.75017  0.09103  0.96606  Biso   1.000  O
  O16      1.0000 0.24983  0.90897  0.96606  Biso   1.000  O
  O17      1.0000 0.75017  0.90897  0.96606  Biso   1.000  O
  O18      1.0000 0.24983  0.09103  0.96606  Biso   1.000  O
  O19      1.0000 0.82439  0.25937  0.01251  Biso   1.000  O
  O20      1.0000 0.17561  0.74064  0.01251  Biso   1.000  O
  O21      1.0000 0.82439  0.74064  0.01251  Biso   1.000  O
  O22      1.0000 0.17561  0.25937  0.01251  Biso   1.000  O
  O23      1.0000 0.50000  0.21955  0.97529  Biso   1.000  O
  O24      1.0000 0.50000  0.78045  0.97529  Biso   1.000  O
  O25      1.0000 0.00000  0.59106  0.05164  Biso   1.000  O
  O26      1.0000 0.00000  0.40893  0.05164  Biso   1.000  O
  O27      1.0000 0.00000  0.73766  0.13229  Biso   1.000  O
  O28      1.0000 0.00000  0.26234  0.13229  Biso   1.000  O
  O29      1.0000 0.00000  0.09042  0.18124  Biso   1.000  O
  O30      1.0000 0.00000  0.90958  0.18124  Biso   1.000  O
  O31      1.0000 0.00000  0.00000  0.40530  Biso   1.000  O
  O32      1.0000 0.32401  0.00000  0.45400  Biso   1.000  O
  O33      1.0000 0.67599  0.00000  0.45400  Biso   1.000  O
  O34      1.0000 0.50000  0.00000  0.03545  Biso   1.000  O
  O35      1.0000 0.82432  0.00000  0.08306  Biso   1.000  O
  O36      1.0000 0.17568  0.00000  0.08306  Biso   1.000  O
  O37      1.0000 0.67519  0.72337  0.74762  Biso   1.000  O
  O38      1.0000 0.32481  0.27663  0.74762  Biso   1.000  O
  O39      1.0000 0.67519  0.27663  0.74762  Biso   1.000  O
  O40      1.0000 0.32481  0.72337  0.74762  Biso   1.000  O
  O41      1.0000 0.24961  0.26761  0.37863  Biso   1.000  O
  O42      1.0000 0.75039  0.73239  0.37863  Biso   1.000  O
  O43      1.0000 0.24961  0.73239  0.37863  Biso   1.000  O
  O44      1.0000 0.75039  0.26761  0.37863  Biso   1.000  O
  O45      1.0000 0.50000  0.20601  0.29406  Biso   1.000  O
  O46      1.0000 0.50000  0.79399  0.29406  Biso   1.000  O
  O47      1.0000 0.75111  0.59103  0.83779  Biso   1.000  O
  O48      1.0000 0.24889  0.40897  0.83779  Biso   1.000  O
  O49      1.0000 0.75111  0.40897  0.83779  Biso   1.000  O
  O50      1.0000 0.24889  0.59103  0.83779  Biso   1.000  O
  O51      1.0000 0.25017  0.59103  0.46606  Biso   1.000  O
  O52      1.0000 0.74983  0.40897  0.46606  Biso   1.000  O
  O53      1.0000 0.25017  0.40897  0.46606  Biso   1.000  O
  O54      1.0000 0.74983  0.59103  0.46606  Biso   1.000  O
  O55      1.0000 0.32439  0.75936  0.51251  Biso   1.000  O
  O56      1.0000 0.67561  0.24064  0.51251  Biso   1.000  O
  O57      1.0000 0.32439  0.24064  0.51251  Biso   1.000  O
  O58      1.0000 0.67561  0.75936  0.51251  Biso   1.000  O
  O59      1.0000 0.00000  0.71955  0.47529  Biso   1.000  O
  O60      1.0000 0.00000  0.28045  0.47529  Biso   1.000  O
  O61      1.0000 0.50000  0.09106  0.55164  Biso   1.000  O
  O62      1.0000 0.50000  0.90894  0.55164  Biso   1.000  O
  O63      1.0000 0.50000  0.23766  0.63229  Biso   1.000  O
  O64      1.0000 0.50000  0.76234  0.63229  Biso   1.000  O
  O65      1.0000 0.50000  0.59042  0.68124  Biso   1.000  O
  O66      1.0000 0.50000  0.40958  0.68124  Biso   1.000  O
  O67      1.0000 0.50000  0.50000  0.90529  Biso   1.000  O
  O68      1.0000 0.82401  0.50000  0.95400  Biso   1.000  O
  O69      1.0000 0.17599  0.50000  0.95400  Biso   1.000  O
  O70      1.0000 0.00000  0.50000  0.53545  Biso   1.000  O
  O71      1.0000 0.32432  0.50000  0.58306  Biso   1.000  O
  O72      1.0000 0.67568  0.50000  0.58306  Biso   1.000  O
  Ir1      1.0000 0.79378  0.69678  0.81504  Biso   1.000  Ir
  Ir2      1.0000 0.20622  0.30322  0.81504  Biso   1.000  Ir
  Ir3      1.0000 0.79378  0.30322  0.81504  Biso   1.000  Ir
  Ir4      1.0000 0.20622  0.69678  0.81504  Biso   1.000  Ir
  Ir5      1.0000 0.70643  0.20075  0.95792  Biso   1.000  Ir
  Ir6      1.0000 0.29357  0.79925  0.95792  Biso   1.000  Ir
  Ir7      1.0000 0.70643  0.79925  0.95792  Biso   1.000  Ir
  Ir8      1.0000 0.29357  0.20075  0.95792  Biso   1.000  Ir
  Ir9      1.0000 0.00000  0.70315  0.05213  Biso   1.000  Ir
  Ir10     1.0000 0.00000  0.29685  0.05213  Biso   1.000  Ir
  Ir11     1.0000 0.00000  0.19939  0.20202  Biso   1.000  Ir
  Ir12     1.0000 0.00000  0.80061  0.20202  Biso   1.000  Ir
  Ir13     1.0000 0.20664  0.00000  0.38356  Biso   1.000  Ir
  Ir14     1.0000 0.79336  0.00000  0.38356  Biso   1.000  Ir
  Ir15     1.0000 0.70648  0.00000  0.01267  Biso   1.000  Ir
  Ir16     1.0000 0.29352  0.00000  0.01267  Biso   1.000  Ir
  Ir17     1.0000 0.00000  0.00000  0.13175  Biso   1.000  Ir
  Ir18     1.0000 0.50000  0.00000  0.50241  Biso   1.000  Ir
  Ir19     1.0000 0.29378  0.19678  0.31504  Biso   1.000  Ir
  Ir20     1.0000 0.70622  0.80322  0.31504  Biso   1.000  Ir
  Ir21     1.0000 0.29378  0.80322  0.31504  Biso   1.000  Ir
  Ir22     1.0000 0.70622  0.19678  0.31504  Biso   1.000  Ir
  Ir23     1.0000 0.20643  0.70075  0.45792  Biso   1.000  Ir
  Ir24     1.0000 0.79357  0.29925  0.45792  Biso   1.000  Ir
  Ir25     1.0000 0.20643  0.29925  0.45792  Biso   1.000  Ir
  Ir26     1.0000 0.79357  0.70075  0.45792  Biso   1.000  Ir
  Ir27     1.0000 0.50000  0.20315  0.55213  Biso   1.000  Ir
  Ir28     1.0000 0.50000  0.79685  0.55213  Biso   1.000  Ir
  Ir29     1.0000 0.50000  0.69939  0.70202  Biso   1.000  Ir
  Ir30     1.0000 0.50000  0.30061  0.70202  Biso   1.000  Ir
  Ir31     1.0000 0.70664  0.50000  0.88356  Biso   1.000  Ir
  Ir32     1.0000 0.29336  0.50000  0.88356  Biso   1.000  Ir
  Ir33     1.0000 0.20648  0.50000  0.51267  Biso   1.000  Ir
  Ir34     1.0000 0.79352  0.50000  0.51267  Biso   1.000  Ir
  Ir35     1.0000 0.50000  0.50000  0.63175  Biso   1.000  Ir
  Ir36     1.0000 0.00000  0.50000  0.00241  Biso   1.000  Ir
