data_image0
_cell_length_a       6.94695
_cell_length_b       12.7156
_cell_length_c       6.3166
_cell_angle_alpha    90
_cell_angle_beta     101.283
_cell_angle_gamma    90

_symmetry_space_group_name_H-M    "P 1"
_symmetry_int_tables_number       1

loop_
  _symmetry_equiv_pos_as_xyz
  'x, y, z'

loop_
  _atom_site_label
  _atom_site_occupancy
  _atom_site_fract_x
  _atom_site_fract_y
  _atom_site_fract_z
  _atom_site_thermal_displace_type
  _atom_site_B_iso_or_equiv
  _atom_site_type_symbol
  O1       1.0000 0.99515  0.01226  0.98937  Biso   1.000  O
  O2       1.0000 0.99515  0.98774  0.48937  Biso   1.000  O
  O3       1.0000 0.78782  0.84583  0.96267  Biso   1.000  O
  O4       1.0000 0.78782  0.15417  0.46267  Biso   1.000  O
  O5       1.0000 0.74157  0.15862  0.75324  Biso   1.000  O
  O6       1.0000 0.74157  0.84138  0.25324  Biso   1.000  O
  O7       1.0000 0.47027  0.61012  0.71309  Biso   1.000  O
  O8       1.0000 0.47027  0.38988  0.21309  Biso   1.000  O
  O9       1.0000 0.32740  0.42303  0.65644  Biso   1.000  O
  O10      1.0000 0.32740  0.57697  0.15644  Biso   1.000  O
  O11      1.0000 0.61622  0.65729  0.50141  Biso   1.000  O
  O12      1.0000 0.61622  0.34270  0.00141  Biso   1.000  O
  Ir1      1.0000 0.44713  0.08112  0.95558  Biso   1.000  Ir
  Ir2      1.0000 0.44713  0.91888  0.45558  Biso   1.000  Ir
  Ir3      1.0000 0.17279  0.77377  0.81918  Biso   1.000  Ir
  Ir4      1.0000 0.17279  0.22623  0.31918  Biso   1.000  Ir
  Ir5      1.0000 0.89554  0.42389  0.74963  Biso   1.000  Ir
  Ir6      1.0000 0.89554  0.57611  0.24963  Biso   1.000  Ir
