data_image0
_cell_length_a       19.8479
_cell_length_b       10.3439
_cell_length_c       13.4027
_cell_angle_alpha    90
_cell_angle_beta     100.468
_cell_angle_gamma    90

_symmetry_space_group_name_H-M    "P 1"
_symmetry_int_tables_number       1

loop_
  _symmetry_equiv_pos_as_xyz
  'x, y, z'

loop_
  _atom_site_label
  _atom_site_occupancy
  _atom_site_fract_x
  _atom_site_fract_y
  _atom_site_fract_z
  _atom_site_thermal_displace_type
  _atom_site_B_iso_or_equiv
  _atom_site_type_symbol
  O1       1.0000 0.07977  0.55639  0.93813  Biso   1.000  O
  O2       1.0000 0.42023  0.05639  0.56187  Biso   1.000  O
  O3       1.0000 0.42023  0.94361  0.06187  Biso   1.000  O
  O4       1.0000 0.07977  0.44361  0.43813  Biso   1.000  O
  O5       1.0000 0.30485  0.62468  0.91058  Biso   1.000  O
  O6       1.0000 0.19515  0.12468  0.58942  Biso   1.000  O
  O7       1.0000 0.19515  0.87532  0.08942  Biso   1.000  O
  O8       1.0000 0.30485  0.37532  0.41058  Biso   1.000  O
  O9       1.0000 0.01485  0.12854  0.89829  Biso   1.000  O
  O10      1.0000 0.48515  0.62854  0.60171  Biso   1.000  O
  O11      1.0000 0.48515  0.37146  0.10171  Biso   1.000  O
  O12      1.0000 0.01485  0.87146  0.39829  Biso   1.000  O
  O13      1.0000 0.37446  0.24528  0.86287  Biso   1.000  O
  O14      1.0000 0.12554  0.74528  0.63713  Biso   1.000  O
  O15      1.0000 0.12554  0.25472  0.13713  Biso   1.000  O
  O16      1.0000 0.37446  0.75472  0.36287  Biso   1.000  O
  O17      1.0000 0.20033  0.97751  0.85301  Biso   1.000  O
  O18      1.0000 0.29967  0.47751  0.64699  Biso   1.000  O
  O19      1.0000 0.29967  0.52249  0.14699  Biso   1.000  O
  O20      1.0000 0.20033  0.02249  0.35301  Biso   1.000  O
  O21      1.0000 0.13615  0.36564  0.76620  Biso   1.000  O
  O22      1.0000 0.36385  0.86564  0.73380  Biso   1.000  O
  O23      1.0000 0.36385  0.13436  0.23380  Biso   1.000  O
  O24      1.0000 0.13615  0.63436  0.26620  Biso   1.000  O
  O25      1.0000 0.57977  0.05639  0.93813  Biso   1.000  O
  O26      1.0000 0.92023  0.55639  0.56187  Biso   1.000  O
  O27      1.0000 0.92023  0.44361  0.06187  Biso   1.000  O
  O28      1.0000 0.57977  0.94361  0.43813  Biso   1.000  O
  O29      1.0000 0.80485  0.12468  0.91058  Biso   1.000  O
  O30      1.0000 0.69515  0.62468  0.58942  Biso   1.000  O
  O31      1.0000 0.69515  0.37532  0.08942  Biso   1.000  O
  O32      1.0000 0.80485  0.87532  0.41058  Biso   1.000  O
  O33      1.0000 0.51485  0.62854  0.89829  Biso   1.000  O
  O34      1.0000 0.98515  0.12854  0.60171  Biso   1.000  O
  O35      1.0000 0.98515  0.87146  0.10171  Biso   1.000  O
  O36      1.0000 0.51485  0.37146  0.39829  Biso   1.000  O
  O37      1.0000 0.87446  0.74528  0.86287  Biso   1.000  O
  O38      1.0000 0.62554  0.24528  0.63713  Biso   1.000  O
  O39      1.0000 0.62554  0.75472  0.13713  Biso   1.000  O
  O40      1.0000 0.87446  0.25472  0.36287  Biso   1.000  O
  O41      1.0000 0.70033  0.47751  0.85301  Biso   1.000  O
  O42      1.0000 0.79967  0.97751  0.64699  Biso   1.000  O
  O43      1.0000 0.79967  0.02249  0.14699  Biso   1.000  O
  O44      1.0000 0.70033  0.52249  0.35301  Biso   1.000  O
  O45      1.0000 0.63615  0.86564  0.76620  Biso   1.000  O
  O46      1.0000 0.86385  0.36564  0.73380  Biso   1.000  O
  O47      1.0000 0.86385  0.63436  0.23380  Biso   1.000  O
  O48      1.0000 0.63615  0.13436  0.26620  Biso   1.000  O
  Ir1      1.0000 0.28293  0.46155  0.99606  Biso   1.000  Ir
  Ir2      1.0000 0.21707  0.96155  0.50394  Biso   1.000  Ir
  Ir3      1.0000 0.21707  0.03845  0.00393  Biso   1.000  Ir
  Ir4      1.0000 0.28293  0.53845  0.49606  Biso   1.000  Ir
  Ir5      1.0000 0.12696  0.20476  0.99060  Biso   1.000  Ir
  Ir6      1.0000 0.37304  0.70476  0.50940  Biso   1.000  Ir
  Ir7      1.0000 0.37304  0.29524  0.00940  Biso   1.000  Ir
  Ir8      1.0000 0.12696  0.79524  0.49060  Biso   1.000  Ir
  Ir9      1.0000 0.15486  0.39798  0.92208  Biso   1.000  Ir
  Ir10     1.0000 0.34514  0.89798  0.57792  Biso   1.000  Ir
  Ir11     1.0000 0.34514  0.10202  0.07792  Biso   1.000  Ir
  Ir12     1.0000 0.15486  0.60202  0.42208  Biso   1.000  Ir
  Ir13     1.0000 0.78293  0.96155  0.99606  Biso   1.000  Ir
  Ir14     1.0000 0.71707  0.46155  0.50394  Biso   1.000  Ir
  Ir15     1.0000 0.71707  0.53845  0.00393  Biso   1.000  Ir
  Ir16     1.0000 0.78293  0.03845  0.49606  Biso   1.000  Ir
  Ir17     1.0000 0.62696  0.70476  0.99060  Biso   1.000  Ir
  Ir18     1.0000 0.87303  0.20476  0.50940  Biso   1.000  Ir
  Ir19     1.0000 0.87303  0.79524  0.00940  Biso   1.000  Ir
  Ir20     1.0000 0.62696  0.29524  0.49060  Biso   1.000  Ir
  Ir21     1.0000 0.65486  0.89798  0.92208  Biso   1.000  Ir
  Ir22     1.0000 0.84514  0.39798  0.57792  Biso   1.000  Ir
  Ir23     1.0000 0.84514  0.60202  0.07792  Biso   1.000  Ir
  Ir24     1.0000 0.65486  0.10202  0.42208  Biso   1.000  Ir
