data_image0
_cell_length_a       24.6659
_cell_length_b       24.6659
_cell_length_c       16.4735
_cell_angle_alpha    90
_cell_angle_beta     90
_cell_angle_gamma    90

_symmetry_space_group_name_H-M    "P 1"
_symmetry_int_tables_number       1

loop_
  _symmetry_equiv_pos_as_xyz
  'x, y, z'

loop_
  _atom_site_label
  _atom_site_occupancy
  _atom_site_fract_x
  _atom_site_fract_y
  _atom_site_fract_z
  _atom_site_thermal_displace_type
  _atom_site_B_iso_or_equiv
  _atom_site_type_symbol
  O1       1.0000 0.08775  0.38050  0.05346  Biso   1.000  O
  O2       1.0000 0.91225  0.61950  0.05346  Biso   1.000  O
  O3       1.0000 0.88050  0.41225  0.44654  Biso   1.000  O
  O4       1.0000 0.11950  0.58775  0.44654  Biso   1.000  O
  O5       1.0000 0.71597  0.49971  0.11655  Biso   1.000  O
  O6       1.0000 0.28403  0.50029  0.11655  Biso   1.000  O
  O7       1.0000 0.99971  0.78403  0.38345  Biso   1.000  O
  O8       1.0000 0.00029  0.21597  0.38345  Biso   1.000  O
  O9       1.0000 0.24866  0.59563  0.42457  Biso   1.000  O
  O10      1.0000 0.75134  0.40437  0.42457  Biso   1.000  O
  O11      1.0000 0.09563  0.25134  0.07543  Biso   1.000  O
  O12      1.0000 0.90437  0.74866  0.07543  Biso   1.000  O
  O13      1.0000 0.87837  0.81136  0.43326  Biso   1.000  O
  O14      1.0000 0.12164  0.18864  0.43326  Biso   1.000  O
  O15      1.0000 0.31136  0.62164  0.06674  Biso   1.000  O
  O16      1.0000 0.68864  0.37837  0.06674  Biso   1.000  O
  O17      1.0000 0.30349  0.38426  0.04334  Biso   1.000  O
  O18      1.0000 0.69651  0.61574  0.04334  Biso   1.000  O
  O19      1.0000 0.88426  0.19651  0.45666  Biso   1.000  O
  O20      1.0000 0.11574  0.80349  0.45666  Biso   1.000  O
  O21      1.0000 0.09982  0.81410  0.26435  Biso   1.000  O
  O22      1.0000 0.90018  0.18590  0.26435  Biso   1.000  O
  O23      1.0000 0.31410  0.40018  0.23565  Biso   1.000  O
  O24      1.0000 0.68590  0.59982  0.23565  Biso   1.000  O
  O25      1.0000 0.81282  0.25096  0.59665  Biso   1.000  O
  O26      1.0000 0.18718  0.74904  0.59665  Biso   1.000  O
  O27      1.0000 0.75096  0.68718  0.90335  Biso   1.000  O
  O28      1.0000 0.24904  0.31282  0.90335  Biso   1.000  O
  O29      1.0000 0.37947  0.60385  0.41344  Biso   1.000  O
  O30      1.0000 0.62053  0.39615  0.41344  Biso   1.000  O
  O31      1.0000 0.10385  0.12053  0.08657  Biso   1.000  O
  O32      1.0000 0.89615  0.87947  0.08657  Biso   1.000  O
  O33      1.0000 0.80152  0.40371  0.15609  Biso   1.000  O
  O34      1.0000 0.19848  0.59629  0.15609  Biso   1.000  O
  O35      1.0000 0.90371  0.69848  0.34392  Biso   1.000  O
  O36      1.0000 0.09629  0.30152  0.34392  Biso   1.000  O
  O37      1.0000 0.80742  0.79994  0.86151  Biso   1.000  O
  O38      1.0000 0.19258  0.20006  0.86151  Biso   1.000  O
  O39      1.0000 0.29994  0.69258  0.63849  Biso   1.000  O
  O40      1.0000 0.70006  0.30742  0.63849  Biso   1.000  O
  O41      1.0000 0.38411  0.40319  0.39557  Biso   1.000  O
  O42      1.0000 0.61589  0.59681  0.39557  Biso   1.000  O
  O43      1.0000 0.90319  0.11589  0.10443  Biso   1.000  O
  O44      1.0000 0.09681  0.88411  0.10443  Biso   1.000  O
  O45      1.0000 0.81697  0.69916  0.73568  Biso   1.000  O
  O46      1.0000 0.18303  0.30084  0.73568  Biso   1.000  O
  O47      1.0000 0.19916  0.68303  0.76432  Biso   1.000  O
  O48      1.0000 0.80084  0.31697  0.76432  Biso   1.000  O
  O49      1.0000 0.12506  0.70036  0.92119  Biso   1.000  O
  O50      1.0000 0.87494  0.29964  0.92119  Biso   1.000  O
  O51      1.0000 0.20036  0.37494  0.57881  Biso   1.000  O
  O52      1.0000 0.79964  0.62506  0.57881  Biso   1.000  O
  O53      1.0000 0.88171  0.69526  0.90048  Biso   1.000  O
  O54      1.0000 0.11829  0.30474  0.90048  Biso   1.000  O
  O55      1.0000 0.19526  0.61829  0.59952  Biso   1.000  O
  O56      1.0000 0.80474  0.38170  0.59952  Biso   1.000  O
  O57      1.0000 0.59011  0.50048  0.52315  Biso   1.000  O
  O58      1.0000 0.40989  0.49952  0.52315  Biso   1.000  O
  O59      1.0000 0.00048  0.90989  0.97685  Biso   1.000  O
  O60      1.0000 0.99952  0.09011  0.97685  Biso   1.000  O
  O61      1.0000 0.79959  0.75447  0.56201  Biso   1.000  O
  O62      1.0000 0.20041  0.24553  0.56201  Biso   1.000  O
  O63      1.0000 0.25447  0.70041  0.93799  Biso   1.000  O
  O64      1.0000 0.74553  0.29959  0.93799  Biso   1.000  O
  O65      1.0000 0.99865  0.30295  0.97117  Biso   1.000  O
  O66      1.0000 0.00135  0.69705  0.97117  Biso   1.000  O
  O67      1.0000 0.80295  0.50135  0.52883  Biso   1.000  O
  O68      1.0000 0.19705  0.49865  0.52883  Biso   1.000  O
  O69      1.0000 0.19555  0.79935  0.84832  Biso   1.000  O
  O70      1.0000 0.80445  0.20065  0.84832  Biso   1.000  O
  O71      1.0000 0.29935  0.30445  0.65168  Biso   1.000  O
  O72      1.0000 0.70065  0.69555  0.65168  Biso   1.000  O
  O73      1.0000 0.68949  0.41297  0.25443  Biso   1.000  O
  O74      1.0000 0.31051  0.58703  0.25443  Biso   1.000  O
  O75      1.0000 0.91297  0.81051  0.24557  Biso   1.000  O
  O76      1.0000 0.08703  0.18949  0.24557  Biso   1.000  O
  O77      1.0000 0.09518  0.69719  0.34640  Biso   1.000  O
  O78      1.0000 0.90482  0.30281  0.34640  Biso   1.000  O
  O79      1.0000 0.19719  0.40482  0.15360  Biso   1.000  O
  O80      1.0000 0.80281  0.59518  0.15360  Biso   1.000  O
  O81      1.0000 0.74631  0.58646  0.40803  Biso   1.000  O
  O82      1.0000 0.25369  0.41354  0.40803  Biso   1.000  O
  O83      1.0000 0.08646  0.75369  0.09197  Biso   1.000  O
  O84      1.0000 0.91354  0.24631  0.09197  Biso   1.000  O
  O85      1.0000 0.88701  0.49884  0.10966  Biso   1.000  O
  O86      1.0000 0.11299  0.50116  0.10966  Biso   1.000  O
  O87      1.0000 0.99884  0.61299  0.39034  Biso   1.000  O
  O88      1.0000 0.00116  0.38701  0.39034  Biso   1.000  O
  O89      1.0000 0.91441  0.37577  0.06981  Biso   1.000  O
  O90      1.0000 0.08559  0.62423  0.06981  Biso   1.000  O
  O91      1.0000 0.87577  0.58559  0.43019  Biso   1.000  O
  O92      1.0000 0.12423  0.41441  0.43019  Biso   1.000  O
  O93      1.0000 0.91749  0.58816  0.24371  Biso   1.000  O
  O94      1.0000 0.08251  0.41184  0.24371  Biso   1.000  O
  O95      1.0000 0.08816  0.58251  0.25628  Biso   1.000  O
  O96      1.0000 0.91184  0.41749  0.25628  Biso   1.000  O
  O97      1.0000 0.58775  0.88050  0.55346  Biso   1.000  O
  O98      1.0000 0.41225  0.11950  0.55346  Biso   1.000  O
  O99      1.0000 0.38050  0.91225  0.94654  Biso   1.000  O
  O100     1.0000 0.61950  0.08775  0.94654  Biso   1.000  O
  O101     1.0000 0.21597  0.99971  0.61655  Biso   1.000  O
  O102     1.0000 0.78403  0.00029  0.61655  Biso   1.000  O
  O103     1.0000 0.49971  0.28403  0.88345  Biso   1.000  O
  O104     1.0000 0.50029  0.71597  0.88345  Biso   1.000  O
  O105     1.0000 0.74866  0.09563  0.92457  Biso   1.000  O
  O106     1.0000 0.25134  0.90437  0.92457  Biso   1.000  O
  O107     1.0000 0.59563  0.75134  0.57543  Biso   1.000  O
  O108     1.0000 0.40437  0.24866  0.57543  Biso   1.000  O
  O109     1.0000 0.37837  0.31136  0.93326  Biso   1.000  O
  O110     1.0000 0.62164  0.68864  0.93326  Biso   1.000  O
  O111     1.0000 0.81136  0.12164  0.56674  Biso   1.000  O
  O112     1.0000 0.18864  0.87837  0.56674  Biso   1.000  O
  O113     1.0000 0.80349  0.88426  0.54334  Biso   1.000  O
  O114     1.0000 0.19651  0.11574  0.54334  Biso   1.000  O
  O115     1.0000 0.38426  0.69651  0.95666  Biso   1.000  O
  O116     1.0000 0.61574  0.30349  0.95666  Biso   1.000  O
  O117     1.0000 0.59982  0.31410  0.76435  Biso   1.000  O
  O118     1.0000 0.40018  0.68590  0.76435  Biso   1.000  O
  O119     1.0000 0.81410  0.90018  0.73565  Biso   1.000  O
  O120     1.0000 0.18590  0.09982  0.73565  Biso   1.000  O
  O121     1.0000 0.31282  0.75096  0.09665  Biso   1.000  O
  O122     1.0000 0.68718  0.24904  0.09665  Biso   1.000  O
  O123     1.0000 0.25096  0.18718  0.40335  Biso   1.000  O
  O124     1.0000 0.74904  0.81282  0.40335  Biso   1.000  O
  O125     1.0000 0.87947  0.10385  0.91343  Biso   1.000  O
  O126     1.0000 0.12053  0.89615  0.91343  Biso   1.000  O
  O127     1.0000 0.60385  0.62053  0.58657  Biso   1.000  O
  O128     1.0000 0.39615  0.37947  0.58657  Biso   1.000  O
  O129     1.0000 0.30152  0.90371  0.65609  Biso   1.000  O
  O130     1.0000 0.69848  0.09629  0.65609  Biso   1.000  O
  O131     1.0000 0.40371  0.19848  0.84391  Biso   1.000  O
  O132     1.0000 0.59629  0.80152  0.84391  Biso   1.000  O
  O133     1.0000 0.30742  0.29994  0.36151  Biso   1.000  O
  O134     1.0000 0.69258  0.70006  0.36151  Biso   1.000  O
  O135     1.0000 0.79994  0.19258  0.13849  Biso   1.000  O
  O136     1.0000 0.20006  0.80742  0.13849  Biso   1.000  O
  O137     1.0000 0.88411  0.90319  0.89557  Biso   1.000  O
  O138     1.0000 0.11589  0.09681  0.89557  Biso   1.000  O
  O139     1.0000 0.40319  0.61589  0.60443  Biso   1.000  O
  O140     1.0000 0.59681  0.38411  0.60443  Biso   1.000  O
  O141     1.0000 0.31697  0.19916  0.23568  Biso   1.000  O
  O142     1.0000 0.68303  0.80084  0.23568  Biso   1.000  O
  O143     1.0000 0.69916  0.18303  0.26432  Biso   1.000  O
  O144     1.0000 0.30084  0.81697  0.26432  Biso   1.000  O
  O145     1.0000 0.62506  0.20036  0.42119  Biso   1.000  O
  O146     1.0000 0.37494  0.79964  0.42119  Biso   1.000  O
  O147     1.0000 0.70036  0.87494  0.07881  Biso   1.000  O
  O148     1.0000 0.29964  0.12506  0.07881  Biso   1.000  O
  O149     1.0000 0.38170  0.19526  0.40049  Biso   1.000  O
  O150     1.0000 0.61829  0.80474  0.40049  Biso   1.000  O
  O151     1.0000 0.69526  0.11829  0.09952  Biso   1.000  O
  O152     1.0000 0.30474  0.88171  0.09952  Biso   1.000  O
  O153     1.0000 0.09011  0.00048  0.02315  Biso   1.000  O
  O154     1.0000 0.90989  0.99952  0.02315  Biso   1.000  O
  O155     1.0000 0.50048  0.40989  0.47685  Biso   1.000  O
  O156     1.0000 0.49952  0.59011  0.47685  Biso   1.000  O
  O157     1.0000 0.29959  0.25447  0.06201  Biso   1.000  O
  O158     1.0000 0.70041  0.74553  0.06201  Biso   1.000  O
  O159     1.0000 0.75447  0.20041  0.43799  Biso   1.000  O
  O160     1.0000 0.24553  0.79959  0.43799  Biso   1.000  O
  O161     1.0000 0.49865  0.80295  0.47117  Biso   1.000  O
  O162     1.0000 0.50135  0.19705  0.47117  Biso   1.000  O
  O163     1.0000 0.30295  0.00135  0.02883  Biso   1.000  O
  O164     1.0000 0.69705  0.99865  0.02883  Biso   1.000  O
  O165     1.0000 0.69555  0.29935  0.34832  Biso   1.000  O
  O166     1.0000 0.30445  0.70065  0.34832  Biso   1.000  O
  O167     1.0000 0.79935  0.80445  0.15168  Biso   1.000  O
  O168     1.0000 0.20065  0.19555  0.15168  Biso   1.000  O
  O169     1.0000 0.18949  0.91297  0.75443  Biso   1.000  O
  O170     1.0000 0.81051  0.08703  0.75443  Biso   1.000  O
  O171     1.0000 0.41297  0.31051  0.74557  Biso   1.000  O
  O172     1.0000 0.58703  0.68949  0.74557  Biso   1.000  O
  O173     1.0000 0.59518  0.19719  0.84640  Biso   1.000  O
  O174     1.0000 0.40482  0.80281  0.84640  Biso   1.000  O
  O175     1.0000 0.69719  0.90482  0.65360  Biso   1.000  O
  O176     1.0000 0.30281  0.09518  0.65360  Biso   1.000  O
  O177     1.0000 0.24631  0.08646  0.90803  Biso   1.000  O
  O178     1.0000 0.75369  0.91354  0.90803  Biso   1.000  O
  O179     1.0000 0.58646  0.25369  0.59197  Biso   1.000  O
  O180     1.0000 0.41354  0.74631  0.59197  Biso   1.000  O
  O181     1.0000 0.38701  0.99884  0.60966  Biso   1.000  O
  O182     1.0000 0.61299  0.00116  0.60966  Biso   1.000  O
  O183     1.0000 0.49884  0.11299  0.89034  Biso   1.000  O
  O184     1.0000 0.50116  0.88701  0.89034  Biso   1.000  O
  O185     1.0000 0.41441  0.87577  0.56981  Biso   1.000  O
  O186     1.0000 0.58559  0.12423  0.56981  Biso   1.000  O
  O187     1.0000 0.37577  0.08559  0.93019  Biso   1.000  O
  O188     1.0000 0.62423  0.91441  0.93019  Biso   1.000  O
  O189     1.0000 0.41749  0.08816  0.74372  Biso   1.000  O
  O190     1.0000 0.58251  0.91184  0.74372  Biso   1.000  O
  O191     1.0000 0.58816  0.08251  0.75628  Biso   1.000  O
  O192     1.0000 0.41184  0.91749  0.75628  Biso   1.000  O
  Ir1      1.0000 0.80599  0.57560  0.48599  Biso   1.000  Ir
  Ir2      1.0000 0.19401  0.42440  0.48599  Biso   1.000  Ir
  Ir3      1.0000 0.07560  0.69401  0.01401  Biso   1.000  Ir
  Ir4      1.0000 0.92440  0.30599  0.01401  Biso   1.000  Ir
  Ir5      1.0000 0.07636  0.22424  0.35146  Biso   1.000  Ir
  Ir6      1.0000 0.92365  0.77576  0.35146  Biso   1.000  Ir
  Ir7      1.0000 0.72424  0.42364  0.14854  Biso   1.000  Ir
  Ir8      1.0000 0.27576  0.57635  0.14854  Biso   1.000  Ir
  Ir9      1.0000 0.07545  0.30996  0.00065  Biso   1.000  Ir
  Ir10     1.0000 0.92455  0.69004  0.00065  Biso   1.000  Ir
  Ir11     1.0000 0.80996  0.42455  0.49935  Biso   1.000  Ir
  Ir12     1.0000 0.19004  0.57545  0.49935  Biso   1.000  Ir
  Ir13     1.0000 0.12016  0.42434  0.14019  Biso   1.000  Ir
  Ir14     1.0000 0.87984  0.57566  0.14019  Biso   1.000  Ir
  Ir15     1.0000 0.92434  0.37984  0.35981  Biso   1.000  Ir
  Ir16     1.0000 0.07566  0.62016  0.35981  Biso   1.000  Ir
  Ir17     1.0000 0.22075  0.68592  0.64975  Biso   1.000  Ir
  Ir18     1.0000 0.77925  0.31408  0.64975  Biso   1.000  Ir
  Ir19     1.0000 0.18592  0.27925  0.85025  Biso   1.000  Ir
  Ir20     1.0000 0.81408  0.72075  0.85025  Biso   1.000  Ir
  Ir21     1.0000 0.77896  0.69337  0.63137  Biso   1.000  Ir
  Ir22     1.0000 0.22104  0.30663  0.63137  Biso   1.000  Ir
  Ir23     1.0000 0.19337  0.72104  0.86863  Biso   1.000  Ir
  Ir24     1.0000 0.80663  0.27896  0.86863  Biso   1.000  Ir
  Ir25     1.0000 0.27449  0.42269  0.13782  Biso   1.000  Ir
  Ir26     1.0000 0.72551  0.57731  0.13782  Biso   1.000  Ir
  Ir27     1.0000 0.92269  0.22551  0.36218  Biso   1.000  Ir
  Ir28     1.0000 0.07731  0.77449  0.36218  Biso   1.000  Ir
  Ir29     1.0000 0.07623  0.37870  0.35188  Biso   1.000  Ir
  Ir30     1.0000 0.92377  0.62130  0.35188  Biso   1.000  Ir
  Ir31     1.0000 0.87870  0.42377  0.14812  Biso   1.000  Ir
  Ir32     1.0000 0.12130  0.57623  0.14812  Biso   1.000  Ir
  Ir33     1.0000 0.69298  0.68509  0.98546  Biso   1.000  Ir
  Ir34     1.0000 0.30702  0.31492  0.98546  Biso   1.000  Ir
  Ir35     1.0000 0.18508  0.80702  0.51454  Biso   1.000  Ir
  Ir36     1.0000 0.81491  0.19298  0.51454  Biso   1.000  Ir
  Ir37     1.0000 0.68951  0.37806  0.36113  Biso   1.000  Ir
  Ir38     1.0000 0.31049  0.62194  0.36113  Biso   1.000  Ir
  Ir39     1.0000 0.87806  0.81049  0.13887  Biso   1.000  Ir
  Ir40     1.0000 0.12194  0.18951  0.13887  Biso   1.000  Ir
  Ir41     1.0000 0.57705  0.57688  0.49549  Biso   1.000  Ir
  Ir42     1.0000 0.42295  0.42312  0.49549  Biso   1.000  Ir
  Ir43     1.0000 0.07688  0.92295  0.00451  Biso   1.000  Ir
  Ir44     1.0000 0.92312  0.07705  0.00451  Biso   1.000  Ir
  Ir45     1.0000 0.68556  0.62105  0.35033  Biso   1.000  Ir
  Ir46     1.0000 0.31444  0.37894  0.35033  Biso   1.000  Ir
  Ir47     1.0000 0.12105  0.81444  0.14967  Biso   1.000  Ir
  Ir48     1.0000 0.87894  0.18556  0.14967  Biso   1.000  Ir
  Ir49     1.0000 0.30599  0.07560  0.98599  Biso   1.000  Ir
  Ir50     1.0000 0.69401  0.92440  0.98599  Biso   1.000  Ir
  Ir51     1.0000 0.57560  0.19401  0.51401  Biso   1.000  Ir
  Ir52     1.0000 0.42440  0.80599  0.51401  Biso   1.000  Ir
  Ir53     1.0000 0.57635  0.72424  0.85146  Biso   1.000  Ir
  Ir54     1.0000 0.42364  0.27576  0.85146  Biso   1.000  Ir
  Ir55     1.0000 0.22424  0.92365  0.64854  Biso   1.000  Ir
  Ir56     1.0000 0.77576  0.07636  0.64854  Biso   1.000  Ir
  Ir57     1.0000 0.57545  0.80996  0.50065  Biso   1.000  Ir
  Ir58     1.0000 0.42455  0.19004  0.50065  Biso   1.000  Ir
  Ir59     1.0000 0.30996  0.92455  0.99935  Biso   1.000  Ir
  Ir60     1.0000 0.69004  0.07545  0.99935  Biso   1.000  Ir
  Ir61     1.0000 0.62016  0.92434  0.64019  Biso   1.000  Ir
  Ir62     1.0000 0.37984  0.07566  0.64019  Biso   1.000  Ir
  Ir63     1.0000 0.42434  0.87984  0.85981  Biso   1.000  Ir
  Ir64     1.0000 0.57566  0.12016  0.85981  Biso   1.000  Ir
  Ir65     1.0000 0.72075  0.18592  0.14975  Biso   1.000  Ir
  Ir66     1.0000 0.27925  0.81408  0.14975  Biso   1.000  Ir
  Ir67     1.0000 0.68592  0.77925  0.35025  Biso   1.000  Ir
  Ir68     1.0000 0.31408  0.22075  0.35025  Biso   1.000  Ir
  Ir69     1.0000 0.27896  0.19337  0.13137  Biso   1.000  Ir
  Ir70     1.0000 0.72104  0.80663  0.13137  Biso   1.000  Ir
  Ir71     1.0000 0.69337  0.22104  0.36863  Biso   1.000  Ir
  Ir72     1.0000 0.30663  0.77896  0.36863  Biso   1.000  Ir
  Ir73     1.0000 0.77449  0.92269  0.63782  Biso   1.000  Ir
  Ir74     1.0000 0.22551  0.07731  0.63782  Biso   1.000  Ir
  Ir75     1.0000 0.42269  0.72551  0.86218  Biso   1.000  Ir
  Ir76     1.0000 0.57731  0.27449  0.86218  Biso   1.000  Ir
  Ir77     1.0000 0.57623  0.87870  0.85188  Biso   1.000  Ir
  Ir78     1.0000 0.42377  0.12130  0.85188  Biso   1.000  Ir
  Ir79     1.0000 0.37870  0.92377  0.64812  Biso   1.000  Ir
  Ir80     1.0000 0.62130  0.07623  0.64812  Biso   1.000  Ir
  Ir81     1.0000 0.19298  0.18508  0.48546  Biso   1.000  Ir
  Ir82     1.0000 0.80702  0.81491  0.48546  Biso   1.000  Ir
  Ir83     1.0000 0.68509  0.30702  0.01454  Biso   1.000  Ir
  Ir84     1.0000 0.31492  0.69298  0.01454  Biso   1.000  Ir
  Ir85     1.0000 0.18951  0.87806  0.86113  Biso   1.000  Ir
  Ir86     1.0000 0.81049  0.12194  0.86113  Biso   1.000  Ir
  Ir87     1.0000 0.37806  0.31049  0.63887  Biso   1.000  Ir
  Ir88     1.0000 0.62194  0.68951  0.63887  Biso   1.000  Ir
  Ir89     1.0000 0.07705  0.07688  0.99549  Biso   1.000  Ir
  Ir90     1.0000 0.92295  0.92312  0.99549  Biso   1.000  Ir
  Ir91     1.0000 0.57688  0.42295  0.50451  Biso   1.000  Ir
  Ir92     1.0000 0.42312  0.57705  0.50451  Biso   1.000  Ir
  Ir93     1.0000 0.18556  0.12105  0.85033  Biso   1.000  Ir
  Ir94     1.0000 0.81444  0.87894  0.85033  Biso   1.000  Ir
  Ir95     1.0000 0.62105  0.31444  0.64967  Biso   1.000  Ir
  Ir96     1.0000 0.37894  0.68556  0.64967  Biso   1.000  Ir
