data_image0
_cell_length_a       15.0251
_cell_length_b       15.0251
_cell_length_c       12.4976
_cell_angle_alpha    90
_cell_angle_beta     90
_cell_angle_gamma    90

_symmetry_space_group_name_H-M    "P 1"
_symmetry_int_tables_number       1

loop_
  _symmetry_equiv_pos_as_xyz
  'x, y, z'

loop_
  _atom_site_label
  _atom_site_occupancy
  _atom_site_fract_x
  _atom_site_fract_y
  _atom_site_fract_z
  _atom_site_thermal_displace_type
  _atom_site_B_iso_or_equiv
  _atom_site_type_symbol
  Ir1      1.0000 0.32285  0.18832  0.56477  Biso   1.000  Ir
  Ir2      1.0000 0.67715  0.81168  0.56477  Biso   1.000  Ir
  Ir3      1.0000 0.81168  0.82285  0.81477  Biso   1.000  Ir
  Ir4      1.0000 0.68832  0.67715  0.31477  Biso   1.000  Ir
  Ir5      1.0000 0.67715  0.31168  0.68523  Biso   1.000  Ir
  Ir6      1.0000 0.82285  0.18832  0.18523  Biso   1.000  Ir
  Ir7      1.0000 0.18832  0.67715  0.43523  Biso   1.000  Ir
  Ir8      1.0000 0.81168  0.32285  0.43523  Biso   1.000  Ir
  Ir9      1.0000 0.82285  0.68832  0.06477  Biso   1.000  Ir
  Ir10     1.0000 0.17715  0.31168  0.06477  Biso   1.000  Ir
  Ir11     1.0000 0.31168  0.32285  0.31477  Biso   1.000  Ir
  Ir12     1.0000 0.18832  0.17715  0.81477  Biso   1.000  Ir
  Ir13     1.0000 0.17715  0.81168  0.18523  Biso   1.000  Ir
  Ir14     1.0000 0.32285  0.68832  0.68523  Biso   1.000  Ir
  Ir15     1.0000 0.68832  0.17715  0.93523  Biso   1.000  Ir
  Ir16     1.0000 0.31168  0.82285  0.93523  Biso   1.000  Ir
  O1       1.0000 0.81946  0.70230  0.24636  Biso   1.000  O
  O2       1.0000 0.68054  0.79770  0.74636  Biso   1.000  O
  O3       1.0000 0.29770  0.31946  0.49636  Biso   1.000  O
  O4       1.0000 0.70230  0.68054  0.49636  Biso   1.000  O
  O5       1.0000 0.68054  0.29770  0.50364  Biso   1.000  O
  O6       1.0000 0.31946  0.70230  0.50364  Biso   1.000  O
  O7       1.0000 0.20230  0.68054  0.25364  Biso   1.000  O
  O8       1.0000 0.29770  0.81946  0.75364  Biso   1.000  O
  O9       1.0000 0.85173  0.57977  0.99143  Biso   1.000  O
  O10      1.0000 0.64827  0.92023  0.49143  Biso   1.000  O
  O11      1.0000 0.92023  0.85173  0.74143  Biso   1.000  O
  O12      1.0000 0.57977  0.64827  0.24143  Biso   1.000  O
  O13      1.0000 0.64827  0.42023  0.75857  Biso   1.000  O
  O14      1.0000 0.85173  0.07977  0.25857  Biso   1.000  O
  O15      1.0000 0.07977  0.64827  0.50857  Biso   1.000  O
  O16      1.0000 0.42023  0.85173  0.00857  Biso   1.000  O
  O17      1.0000 0.31946  0.20230  0.74636  Biso   1.000  O
  O18      1.0000 0.18054  0.29770  0.24636  Biso   1.000  O
  O19      1.0000 0.79770  0.81946  0.99636  Biso   1.000  O
  O20      1.0000 0.20230  0.18054  0.99636  Biso   1.000  O
  O21      1.0000 0.18054  0.79770  0.00364  Biso   1.000  O
  O22      1.0000 0.81946  0.20230  0.00364  Biso   1.000  O
  O23      1.0000 0.70230  0.18054  0.75364  Biso   1.000  O
  O24      1.0000 0.79770  0.31946  0.25364  Biso   1.000  O
  O25      1.0000 0.35173  0.07977  0.49143  Biso   1.000  O
  O26      1.0000 0.14827  0.42023  0.99143  Biso   1.000  O
  O27      1.0000 0.42023  0.35173  0.24143  Biso   1.000  O
  O28      1.0000 0.07977  0.14827  0.74143  Biso   1.000  O
  O29      1.0000 0.14827  0.92023  0.25857  Biso   1.000  O
  O30      1.0000 0.35173  0.57977  0.75857  Biso   1.000  O
  O31      1.0000 0.57977  0.14827  0.00857  Biso   1.000  O
  O32      1.0000 0.92023  0.35173  0.50857  Biso   1.000  O
