data_image0
_cell_length_a       7.05036
_cell_length_b       45.8404
_cell_length_c       27.7322
_cell_angle_alpha    90
_cell_angle_beta     90.3574
_cell_angle_gamma    90

_symmetry_space_group_name_H-M    "P 1"
_symmetry_int_tables_number       1

loop_
  _symmetry_equiv_pos_as_xyz
  'x, y, z'

loop_
  _atom_site_label
  _atom_site_occupancy
  _atom_site_fract_x
  _atom_site_fract_y
  _atom_site_fract_z
  _atom_site_thermal_displace_type
  _atom_site_B_iso_or_equiv
  _atom_site_type_symbol
  O1       1.0000 0.33272  0.36496  0.92953  Biso   1.000  O
  O2       1.0000 0.66728  0.36496  0.57047  Biso   1.000  O
  O3       1.0000 0.16728  0.13504  0.07047  Biso   1.000  O
  O4       1.0000 0.83272  0.13504  0.42953  Biso   1.000  O
  O5       1.0000 0.75486  0.22676  0.15567  Biso   1.000  O
  O6       1.0000 0.24513  0.22676  0.34432  Biso   1.000  O
  O7       1.0000 0.74513  0.27324  0.84432  Biso   1.000  O
  O8       1.0000 0.25486  0.27324  0.65567  Biso   1.000  O
  O9       1.0000 0.80726  0.47931  0.43182  Biso   1.000  O
  O10      1.0000 0.19274  0.47931  0.06818  Biso   1.000  O
  O11      1.0000 0.69274  0.02069  0.56818  Biso   1.000  O
  O12      1.0000 0.30726  0.02069  0.93182  Biso   1.000  O
  O13      1.0000 0.42570  0.34773  0.47839  Biso   1.000  O
  O14      1.0000 0.57429  0.34773  0.02161  Biso   1.000  O
  O15      1.0000 0.07429  0.15227  0.52161  Biso   1.000  O
  O16      1.0000 0.92570  0.15227  0.97839  Biso   1.000  O
  O17      1.0000 0.77798  0.40518  0.46601  Biso   1.000  O
  O18      1.0000 0.22202  0.40518  0.03399  Biso   1.000  O
  O19      1.0000 0.72202  0.09482  0.53399  Biso   1.000  O
  O20      1.0000 0.27798  0.09482  0.96601  Biso   1.000  O
  O21      1.0000 0.60636  0.04247  0.13628  Biso   1.000  O
  O22      1.0000 0.39364  0.04247  0.36372  Biso   1.000  O
  O23      1.0000 0.89364  0.45753  0.86372  Biso   1.000  O
  O24      1.0000 0.10636  0.45753  0.63628  Biso   1.000  O
  O25      1.0000 0.56627  0.16937  0.53161  Biso   1.000  O
  O26      1.0000 0.43373  0.16937  0.96839  Biso   1.000  O
  O27      1.0000 0.93373  0.33063  0.46839  Biso   1.000  O
  O28      1.0000 0.06627  0.33063  0.03161  Biso   1.000  O
  O29      1.0000 0.00000  0.23260  0.25000  Biso   1.000  O
  O30      1.0000 0.50000  0.26740  0.75000  Biso   1.000  O
  O31      1.0000 0.93842  0.45460  0.98230  Biso   1.000  O
  O32      1.0000 0.06158  0.45460  0.51770  Biso   1.000  O
  O33      1.0000 0.56158  0.04540  0.01770  Biso   1.000  O
  O34      1.0000 0.43842  0.04540  0.48230  Biso   1.000  O
  O35      1.0000 0.74633  0.11547  0.15948  Biso   1.000  O
  O36      1.0000 0.25367  0.11547  0.34052  Biso   1.000  O
  O37      1.0000 0.75367  0.38453  0.84052  Biso   1.000  O
  O38      1.0000 0.24633  0.38453  0.65948  Biso   1.000  O
  O39      1.0000 0.91802  0.17045  0.32117  Biso   1.000  O
  O40      1.0000 0.08198  0.17045  0.17883  Biso   1.000  O
  O41      1.0000 0.58198  0.32955  0.67883  Biso   1.000  O
  O42      1.0000 0.41802  0.32955  0.82117  Biso   1.000  O
  O43      1.0000 0.27528  0.23857  0.13289  Biso   1.000  O
  O44      1.0000 0.72472  0.23857  0.36711  Biso   1.000  O
  O45      1.0000 0.22472  0.26143  0.86711  Biso   1.000  O
  O46      1.0000 0.77528  0.26143  0.63289  Biso   1.000  O
  O47      1.0000 0.17098  0.21632  0.57957  Biso   1.000  O
  O48      1.0000 0.82901  0.21632  0.92043  Biso   1.000  O
  O49      1.0000 0.32901  0.28368  0.42043  Biso   1.000  O
  O50      1.0000 0.67098  0.28368  0.07957  Biso   1.000  O
  O51      1.0000 0.50000  0.06793  0.25000  Biso   1.000  O
  O52      1.0000 0.00000  0.43207  0.75000  Biso   1.000  O
  O53      1.0000 0.23688  0.09719  0.17045  Biso   1.000  O
  O54      1.0000 0.76312  0.09719  0.32955  Biso   1.000  O
  O55      1.0000 0.26312  0.40281  0.82955  Biso   1.000  O
  O56      1.0000 0.73688  0.40281  0.67045  Biso   1.000  O
  O57      1.0000 0.03525  0.03956  0.04494  Biso   1.000  O
  O58      1.0000 0.96475  0.03956  0.45506  Biso   1.000  O
  O59      1.0000 0.46475  0.46044  0.95506  Biso   1.000  O
  O60      1.0000 0.53525  0.46044  0.54494  Biso   1.000  O
  O61      1.0000 0.33197  0.21027  0.45594  Biso   1.000  O
  O62      1.0000 0.66803  0.21027  0.04406  Biso   1.000  O
  O63      1.0000 0.16803  0.28973  0.54406  Biso   1.000  O
  O64      1.0000 0.83197  0.28973  0.95594  Biso   1.000  O
  O65      1.0000 0.83272  0.86496  0.92953  Biso   1.000  O
  O66      1.0000 0.16728  0.86496  0.57047  Biso   1.000  O
  O67      1.0000 0.66728  0.63504  0.07047  Biso   1.000  O
  O68      1.0000 0.33272  0.63504  0.42953  Biso   1.000  O
  O69      1.0000 0.25487  0.72676  0.15567  Biso   1.000  O
  O70      1.0000 0.74513  0.72676  0.34432  Biso   1.000  O
  O71      1.0000 0.24513  0.77324  0.84432  Biso   1.000  O
  O72      1.0000 0.75486  0.77324  0.65567  Biso   1.000  O
  O73      1.0000 0.30726  0.97931  0.43182  Biso   1.000  O
  O74      1.0000 0.69274  0.97931  0.06818  Biso   1.000  O
  O75      1.0000 0.19274  0.52069  0.56818  Biso   1.000  O
  O76      1.0000 0.80726  0.52069  0.93182  Biso   1.000  O
  O77      1.0000 0.92570  0.84773  0.47839  Biso   1.000  O
  O78      1.0000 0.07429  0.84773  0.02161  Biso   1.000  O
  O79      1.0000 0.57429  0.65227  0.52161  Biso   1.000  O
  O80      1.0000 0.42570  0.65227  0.97839  Biso   1.000  O
  O81      1.0000 0.27798  0.90518  0.46601  Biso   1.000  O
  O82      1.0000 0.72202  0.90518  0.03399  Biso   1.000  O
  O83      1.0000 0.22202  0.59482  0.53399  Biso   1.000  O
  O84      1.0000 0.77798  0.59482  0.96601  Biso   1.000  O
  O85      1.0000 0.10636  0.54247  0.13628  Biso   1.000  O
  O86      1.0000 0.89364  0.54247  0.36372  Biso   1.000  O
  O87      1.0000 0.39364  0.95753  0.86372  Biso   1.000  O
  O88      1.0000 0.60636  0.95753  0.63628  Biso   1.000  O
  O89      1.0000 0.06627  0.66937  0.53161  Biso   1.000  O
  O90      1.0000 0.93373  0.66937  0.96839  Biso   1.000  O
  O91      1.0000 0.43373  0.83063  0.46839  Biso   1.000  O
  O92      1.0000 0.56627  0.83063  0.03161  Biso   1.000  O
  O93      1.0000 0.50000  0.73260  0.25000  Biso   1.000  O
  O94      1.0000 0.00000  0.76740  0.75000  Biso   1.000  O
  O95      1.0000 0.43842  0.95460  0.98230  Biso   1.000  O
  O96      1.0000 0.56158  0.95460  0.51770  Biso   1.000  O
  O97      1.0000 0.06158  0.54540  0.01770  Biso   1.000  O
  O98      1.0000 0.93842  0.54540  0.48230  Biso   1.000  O
  O99      1.0000 0.24633  0.61547  0.15948  Biso   1.000  O
  O100     1.0000 0.75367  0.61547  0.34052  Biso   1.000  O
  O101     1.0000 0.25367  0.88453  0.84052  Biso   1.000  O
  O102     1.0000 0.74633  0.88453  0.65948  Biso   1.000  O
  O103     1.0000 0.41802  0.67045  0.32117  Biso   1.000  O
  O104     1.0000 0.58198  0.67045  0.17883  Biso   1.000  O
  O105     1.0000 0.08198  0.82955  0.67883  Biso   1.000  O
  O106     1.0000 0.91802  0.82955  0.82117  Biso   1.000  O
  O107     1.0000 0.77528  0.73857  0.13289  Biso   1.000  O
  O108     1.0000 0.22472  0.73857  0.36711  Biso   1.000  O
  O109     1.0000 0.72472  0.76143  0.86711  Biso   1.000  O
  O110     1.0000 0.27528  0.76143  0.63289  Biso   1.000  O
  O111     1.0000 0.67098  0.71632  0.57957  Biso   1.000  O
  O112     1.0000 0.32901  0.71632  0.92043  Biso   1.000  O
  O113     1.0000 0.82901  0.78368  0.42043  Biso   1.000  O
  O114     1.0000 0.17098  0.78368  0.07957  Biso   1.000  O
  O115     1.0000 0.00000  0.56793  0.25000  Biso   1.000  O
  O116     1.0000 0.50000  0.93207  0.75000  Biso   1.000  O
  O117     1.0000 0.73688  0.59719  0.17045  Biso   1.000  O
  O118     1.0000 0.26312  0.59719  0.32955  Biso   1.000  O
  O119     1.0000 0.76312  0.90281  0.82955  Biso   1.000  O
  O120     1.0000 0.23688  0.90281  0.67045  Biso   1.000  O
  O121     1.0000 0.53525  0.53956  0.04494  Biso   1.000  O
  O122     1.0000 0.46475  0.53956  0.45506  Biso   1.000  O
  O123     1.0000 0.96475  0.96044  0.95506  Biso   1.000  O
  O124     1.0000 0.03525  0.96044  0.54494  Biso   1.000  O
  O125     1.0000 0.83197  0.71027  0.45594  Biso   1.000  O
  O126     1.0000 0.16803  0.71027  0.04406  Biso   1.000  O
  O127     1.0000 0.66803  0.78973  0.54406  Biso   1.000  O
  O128     1.0000 0.33197  0.78973  0.95594  Biso   1.000  O
  Ir1      1.0000 0.44205  0.37055  0.85545  Biso   1.000  Ir
  Ir2      1.0000 0.55795  0.37055  0.64455  Biso   1.000  Ir
  Ir3      1.0000 0.05795  0.12945  0.14455  Biso   1.000  Ir
  Ir4      1.0000 0.94205  0.12945  0.35545  Biso   1.000  Ir
  Ir5      1.0000 0.22250  0.47340  0.56679  Biso   1.000  Ir
  Ir6      1.0000 0.77750  0.47340  0.93321  Biso   1.000  Ir
  Ir7      1.0000 0.27750  0.02660  0.43321  Biso   1.000  Ir
  Ir8      1.0000 0.72250  0.02660  0.06679  Biso   1.000  Ir
  Ir9      1.0000 0.02559  0.41902  0.67857  Biso   1.000  Ir
  Ir10     1.0000 0.97441  0.41902  0.82143  Biso   1.000  Ir
  Ir11     1.0000 0.47441  0.08098  0.32143  Biso   1.000  Ir
  Ir12     1.0000 0.52559  0.08098  0.17857  Biso   1.000  Ir
  Ir13     1.0000 0.97236  0.21706  0.32067  Biso   1.000  Ir
  Ir14     1.0000 0.02763  0.21706  0.17933  Biso   1.000  Ir
  Ir15     1.0000 0.52763  0.28294  0.67932  Biso   1.000  Ir
  Ir16     1.0000 0.47236  0.28294  0.82068  Biso   1.000  Ir
  Ir17     1.0000 0.79791  0.13779  0.50426  Biso   1.000  Ir
  Ir18     1.0000 0.20209  0.13779  0.99574  Biso   1.000  Ir
  Ir19     1.0000 0.70209  0.36221  0.49574  Biso   1.000  Ir
  Ir20     1.0000 0.29791  0.36221  0.00426  Biso   1.000  Ir
  Ir21     1.0000 0.40598  0.23959  0.39687  Biso   1.000  Ir
  Ir22     1.0000 0.59402  0.23959  0.10313  Biso   1.000  Ir
  Ir23     1.0000 0.09402  0.26041  0.60313  Biso   1.000  Ir
  Ir24     1.0000 0.90598  0.26041  0.89687  Biso   1.000  Ir
  Ir25     1.0000 0.28489  0.18755  0.52182  Biso   1.000  Ir
  Ir26     1.0000 0.71511  0.18755  0.97818  Biso   1.000  Ir
  Ir27     1.0000 0.21511  0.31245  0.47818  Biso   1.000  Ir
  Ir28     1.0000 0.78489  0.31245  0.02183  Biso   1.000  Ir
  Ir29     1.0000 0.29387  0.05041  0.99004  Biso   1.000  Ir
  Ir30     1.0000 0.70613  0.05041  0.50996  Biso   1.000  Ir
  Ir31     1.0000 0.20613  0.44959  0.00996  Biso   1.000  Ir
  Ir32     1.0000 0.79387  0.44959  0.49004  Biso   1.000  Ir
  Ir33     1.0000 0.94205  0.87055  0.85545  Biso   1.000  Ir
  Ir34     1.0000 0.05795  0.87055  0.64455  Biso   1.000  Ir
  Ir35     1.0000 0.55795  0.62945  0.14455  Biso   1.000  Ir
  Ir36     1.0000 0.44205  0.62945  0.35545  Biso   1.000  Ir
  Ir37     1.0000 0.72250  0.97340  0.56679  Biso   1.000  Ir
  Ir38     1.0000 0.27750  0.97340  0.93321  Biso   1.000  Ir
  Ir39     1.0000 0.77750  0.52659  0.43321  Biso   1.000  Ir
  Ir40     1.0000 0.22250  0.52659  0.06679  Biso   1.000  Ir
  Ir41     1.0000 0.52559  0.91902  0.67857  Biso   1.000  Ir
  Ir42     1.0000 0.47441  0.91902  0.82143  Biso   1.000  Ir
  Ir43     1.0000 0.97441  0.58098  0.32143  Biso   1.000  Ir
  Ir44     1.0000 0.02559  0.58098  0.17857  Biso   1.000  Ir
  Ir45     1.0000 0.47236  0.71706  0.32067  Biso   1.000  Ir
  Ir46     1.0000 0.52763  0.71706  0.17933  Biso   1.000  Ir
  Ir47     1.0000 0.02763  0.78294  0.67932  Biso   1.000  Ir
  Ir48     1.0000 0.97236  0.78294  0.82068  Biso   1.000  Ir
  Ir49     1.0000 0.29791  0.63779  0.50426  Biso   1.000  Ir
  Ir50     1.0000 0.70209  0.63779  0.99574  Biso   1.000  Ir
  Ir51     1.0000 0.20209  0.86221  0.49574  Biso   1.000  Ir
  Ir52     1.0000 0.79791  0.86221  0.00426  Biso   1.000  Ir
  Ir53     1.0000 0.90598  0.73959  0.39687  Biso   1.000  Ir
  Ir54     1.0000 0.09402  0.73959  0.10313  Biso   1.000  Ir
  Ir55     1.0000 0.59402  0.76041  0.60313  Biso   1.000  Ir
  Ir56     1.0000 0.40598  0.76041  0.89687  Biso   1.000  Ir
  Ir57     1.0000 0.78489  0.68755  0.52182  Biso   1.000  Ir
  Ir58     1.0000 0.21511  0.68755  0.97818  Biso   1.000  Ir
  Ir59     1.0000 0.71511  0.81245  0.47818  Biso   1.000  Ir
  Ir60     1.0000 0.28489  0.81245  0.02183  Biso   1.000  Ir
  Ir61     1.0000 0.79387  0.55041  0.99004  Biso   1.000  Ir
  Ir62     1.0000 0.20613  0.55041  0.50996  Biso   1.000  Ir
  Ir63     1.0000 0.70613  0.94959  0.00996  Biso   1.000  Ir
  Ir64     1.0000 0.29387  0.94959  0.49004  Biso   1.000  Ir
