data_image0
_cell_length_a       18.63
_cell_length_b       9.17287
_cell_length_c       28.391
_cell_angle_alpha    90
_cell_angle_beta     103.331
_cell_angle_gamma    90

_symmetry_space_group_name_H-M    "P 1"
_symmetry_int_tables_number       1

loop_
  _symmetry_equiv_pos_as_xyz
  'x, y, z'

loop_
  _atom_site_label
  _atom_site_occupancy
  _atom_site_fract_x
  _atom_site_fract_y
  _atom_site_fract_z
  _atom_site_thermal_displace_type
  _atom_site_B_iso_or_equiv
  _atom_site_type_symbol
  Ir1      1.0000 0.84028  0.06663  0.14804  Biso   1.000  Ir
  Ir2      1.0000 0.15972  0.06663  0.35196  Biso   1.000  Ir
  Ir3      1.0000 0.15972  0.93337  0.85196  Biso   1.000  Ir
  Ir4      1.0000 0.84028  0.93337  0.64804  Biso   1.000  Ir
  Ir5      1.0000 0.23136  0.25022  0.77370  Biso   1.000  Ir
  Ir6      1.0000 0.26864  0.75022  0.72630  Biso   1.000  Ir
  Ir7      1.0000 0.76864  0.74978  0.22630  Biso   1.000  Ir
  Ir8      1.0000 0.73136  0.24978  0.27370  Biso   1.000  Ir
  Ir9      1.0000 0.88715  0.56598  0.10525  Biso   1.000  Ir
  Ir10     1.0000 0.11285  0.56598  0.39475  Biso   1.000  Ir
  Ir11     1.0000 0.11285  0.43402  0.89475  Biso   1.000  Ir
  Ir12     1.0000 0.88715  0.43402  0.60525  Biso   1.000  Ir
  Ir13     1.0000 0.00000  0.60325  0.75000  Biso   1.000  Ir
  Ir14     1.0000 0.00000  0.39675  0.25000  Biso   1.000  Ir
  Ir15     1.0000 0.10246  0.08338  0.62914  Biso   1.000  Ir
  Ir16     1.0000 0.39754  0.58338  0.87086  Biso   1.000  Ir
  Ir17     1.0000 0.89754  0.91662  0.37085  Biso   1.000  Ir
  Ir18     1.0000 0.60246  0.41662  0.12915  Biso   1.000  Ir
  Ir19     1.0000 0.96568  0.74591  0.51537  Biso   1.000  Ir
  Ir20     1.0000 0.03432  0.74591  0.98463  Biso   1.000  Ir
  Ir21     1.0000 0.03432  0.25409  0.48463  Biso   1.000  Ir
  Ir22     1.0000 0.96568  0.25409  0.01537  Biso   1.000  Ir
  Ir23     1.0000 0.34028  0.56663  0.14804  Biso   1.000  Ir
  Ir24     1.0000 0.65972  0.56663  0.35196  Biso   1.000  Ir
  Ir25     1.0000 0.65972  0.43337  0.85196  Biso   1.000  Ir
  Ir26     1.0000 0.34028  0.43337  0.64804  Biso   1.000  Ir
  Ir27     1.0000 0.73136  0.75022  0.77370  Biso   1.000  Ir
  Ir28     1.0000 0.76864  0.25022  0.72630  Biso   1.000  Ir
  Ir29     1.0000 0.26864  0.24978  0.22630  Biso   1.000  Ir
  Ir30     1.0000 0.23136  0.74978  0.27370  Biso   1.000  Ir
  Ir31     1.0000 0.38715  0.06598  0.10525  Biso   1.000  Ir
  Ir32     1.0000 0.61285  0.06598  0.39475  Biso   1.000  Ir
  Ir33     1.0000 0.61285  0.93402  0.89475  Biso   1.000  Ir
  Ir34     1.0000 0.38715  0.93402  0.60525  Biso   1.000  Ir
  Ir35     1.0000 0.50000  0.10325  0.75000  Biso   1.000  Ir
  Ir36     1.0000 0.50000  0.89675  0.25000  Biso   1.000  Ir
  Ir37     1.0000 0.60246  0.58338  0.62914  Biso   1.000  Ir
  Ir38     1.0000 0.89754  0.08338  0.87086  Biso   1.000  Ir
  Ir39     1.0000 0.39754  0.41662  0.37085  Biso   1.000  Ir
  Ir40     1.0000 0.10246  0.91662  0.12915  Biso   1.000  Ir
  Ir41     1.0000 0.46568  0.24591  0.51537  Biso   1.000  Ir
  Ir42     1.0000 0.53432  0.24591  0.98463  Biso   1.000  Ir
  Ir43     1.0000 0.53432  0.75409  0.48463  Biso   1.000  Ir
  Ir44     1.0000 0.46568  0.75409  0.01537  Biso   1.000  Ir
  O1       1.0000 0.80460  0.40115  0.18818  Biso   1.000  O
  O2       1.0000 0.69540  0.90115  0.31182  Biso   1.000  O
  O3       1.0000 0.19540  0.59885  0.81182  Biso   1.000  O
  O4       1.0000 0.30460  0.09885  0.68818  Biso   1.000  O
  O5       1.0000 0.58177  0.09929  0.08637  Biso   1.000  O
  O6       1.0000 0.91823  0.59929  0.41363  Biso   1.000  O
  O7       1.0000 0.41823  0.90071  0.91363  Biso   1.000  O
  O8       1.0000 0.08177  0.40071  0.58637  Biso   1.000  O
  O9       1.0000 0.92110  0.91307  0.07141  Biso   1.000  O
  O10      1.0000 0.07890  0.91307  0.42859  Biso   1.000  O
  O11      1.0000 0.07890  0.08693  0.92859  Biso   1.000  O
  O12      1.0000 0.92110  0.08693  0.57141  Biso   1.000  O
  O13      1.0000 0.95734  0.23956  0.69042  Biso   1.000  O
  O14      1.0000 0.04267  0.23956  0.80958  Biso   1.000  O
  O15      1.0000 0.04266  0.76044  0.30957  Biso   1.000  O
  O16      1.0000 0.95734  0.76044  0.19043  Biso   1.000  O
  O17      1.0000 0.79109  0.26487  0.06476  Biso   1.000  O
  O18      1.0000 0.20891  0.26487  0.43524  Biso   1.000  O
  O19      1.0000 0.20891  0.73513  0.93524  Biso   1.000  O
  O20      1.0000 0.79109  0.73513  0.56476  Biso   1.000  O
  O21      1.0000 0.13610  0.57415  0.49829  Biso   1.000  O
  O22      1.0000 0.86390  0.57415  0.00171  Biso   1.000  O
  O23      1.0000 0.86390  0.42584  0.50171  Biso   1.000  O
  O24      1.0000 0.13610  0.42584  0.99829  Biso   1.000  O
  O25      1.0000 0.10762  0.93808  0.74055  Biso   1.000  O
  O26      1.0000 0.89238  0.93808  0.75945  Biso   1.000  O
  O27      1.0000 0.89238  0.06192  0.25945  Biso   1.000  O
  O28      1.0000 0.10762  0.06192  0.24055  Biso   1.000  O
  O29      1.0000 0.77610  0.25842  0.37706  Biso   1.000  O
  O30      1.0000 0.72390  0.75842  0.12294  Biso   1.000  O
  O31      1.0000 0.22390  0.74158  0.62294  Biso   1.000  O
  O32      1.0000 0.27610  0.24158  0.87706  Biso   1.000  O
  O33      1.0000 0.99465  0.26021  0.35532  Biso   1.000  O
  O34      1.0000 0.00535  0.26021  0.14468  Biso   1.000  O
  O35      1.0000 0.00535  0.73979  0.64468  Biso   1.000  O
  O36      1.0000 0.99465  0.73979  0.85532  Biso   1.000  O
  O37      1.0000 0.35042  0.95742  0.80274  Biso   1.000  O
  O38      1.0000 0.14958  0.45742  0.69726  Biso   1.000  O
  O39      1.0000 0.64958  0.04258  0.19726  Biso   1.000  O
  O40      1.0000 0.85042  0.54258  0.30274  Biso   1.000  O
  O41      1.0000 0.63051  0.52427  0.03712  Biso   1.000  O
  O42      1.0000 0.86949  0.02427  0.46288  Biso   1.000  O
  O43      1.0000 0.36949  0.47573  0.96288  Biso   1.000  O
  O44      1.0000 0.13051  0.97573  0.53712  Biso   1.000  O
  O45      1.0000 0.30460  0.90115  0.18818  Biso   1.000  O
  O46      1.0000 0.19540  0.40115  0.31182  Biso   1.000  O
  O47      1.0000 0.69540  0.09885  0.81182  Biso   1.000  O
  O48      1.0000 0.80460  0.59885  0.68818  Biso   1.000  O
  O49      1.0000 0.08177  0.59929  0.08637  Biso   1.000  O
  O50      1.0000 0.41823  0.09929  0.41363  Biso   1.000  O
  O51      1.0000 0.91823  0.40071  0.91363  Biso   1.000  O
  O52      1.0000 0.58177  0.90071  0.58637  Biso   1.000  O
  O53      1.0000 0.42110  0.41307  0.07141  Biso   1.000  O
  O54      1.0000 0.57890  0.41307  0.42859  Biso   1.000  O
  O55      1.0000 0.57890  0.58693  0.92859  Biso   1.000  O
  O56      1.0000 0.42110  0.58693  0.57141  Biso   1.000  O
  O57      1.0000 0.45733  0.73956  0.69042  Biso   1.000  O
  O58      1.0000 0.54266  0.73956  0.80958  Biso   1.000  O
  O59      1.0000 0.54266  0.26044  0.30957  Biso   1.000  O
  O60      1.0000 0.45733  0.26044  0.19043  Biso   1.000  O
  O61      1.0000 0.29109  0.76487  0.06476  Biso   1.000  O
  O62      1.0000 0.70891  0.76487  0.43524  Biso   1.000  O
  O63      1.0000 0.70891  0.23513  0.93524  Biso   1.000  O
  O64      1.0000 0.29109  0.23513  0.56476  Biso   1.000  O
  O65      1.0000 0.63610  0.07415  0.49829  Biso   1.000  O
  O66      1.0000 0.36390  0.07415  0.00171  Biso   1.000  O
  O67      1.0000 0.36390  0.92584  0.50171  Biso   1.000  O
  O68      1.0000 0.63610  0.92584  0.99829  Biso   1.000  O
  O69      1.0000 0.60762  0.43808  0.74055  Biso   1.000  O
  O70      1.0000 0.39238  0.43808  0.75945  Biso   1.000  O
  O71      1.0000 0.39238  0.56192  0.25945  Biso   1.000  O
  O72      1.0000 0.60762  0.56192  0.24055  Biso   1.000  O
  O73      1.0000 0.27610  0.75842  0.37706  Biso   1.000  O
  O74      1.0000 0.22390  0.25842  0.12294  Biso   1.000  O
  O75      1.0000 0.72390  0.24158  0.62294  Biso   1.000  O
  O76      1.0000 0.77610  0.74158  0.87706  Biso   1.000  O
  O77      1.0000 0.49465  0.76021  0.35532  Biso   1.000  O
  O78      1.0000 0.50535  0.76021  0.14468  Biso   1.000  O
  O79      1.0000 0.50535  0.23979  0.64468  Biso   1.000  O
  O80      1.0000 0.49465  0.23979  0.85532  Biso   1.000  O
  O81      1.0000 0.85042  0.45742  0.80274  Biso   1.000  O
  O82      1.0000 0.64958  0.95742  0.69726  Biso   1.000  O
  O83      1.0000 0.14958  0.54258  0.19726  Biso   1.000  O
  O84      1.0000 0.35042  0.04258  0.30274  Biso   1.000  O
  O85      1.0000 0.13051  0.02427  0.03712  Biso   1.000  O
  O86      1.0000 0.36949  0.52427  0.46288  Biso   1.000  O
  O87      1.0000 0.86949  0.97573  0.96288  Biso   1.000  O
  O88      1.0000 0.63051  0.47573  0.53712  Biso   1.000  O
