data_image0
_cell_length_a       13.3939
_cell_length_b       3.99945
_cell_length_c       6.40431
_cell_angle_alpha    90
_cell_angle_beta     93.6571
_cell_angle_gamma    90

_symmetry_space_group_name_H-M    "P 1"
_symmetry_int_tables_number       1

loop_
  _symmetry_equiv_pos_as_xyz
  'x, y, z'

loop_
  _atom_site_label
  _atom_site_occupancy
  _atom_site_fract_x
  _atom_site_fract_y
  _atom_site_fract_z
  _atom_site_thermal_displace_type
  _atom_site_B_iso_or_equiv
  _atom_site_type_symbol
  O1       1.0000 0.63112  0.66447  0.81829  Biso   1.000  O
  O2       1.0000 0.86888  0.16447  0.68171  Biso   1.000  O
  O3       1.0000 0.86888  0.83553  0.18171  Biso   1.000  O
  O4       1.0000 0.63112  0.33553  0.31829  Biso   1.000  O
  O5       1.0000 0.13112  0.16447  0.81829  Biso   1.000  O
  O6       1.0000 0.36888  0.66447  0.68171  Biso   1.000  O
  O7       1.0000 0.36888  0.33553  0.18171  Biso   1.000  O
  O8       1.0000 0.13112  0.83553  0.31829  Biso   1.000  O
  Ir1      1.0000 0.50000  0.50000  0.00000  Biso   1.000  Ir
  Ir2      1.0000 0.50000  0.50000  0.50000  Biso   1.000  Ir
  Ir3      1.0000 0.00000  0.00000  0.00000  Biso   1.000  Ir
  Ir4      1.0000 0.00000  0.00000  0.50000  Biso   1.000  Ir
