data_image0
_cell_length_a       5.18972
_cell_length_b       11.4483
_cell_length_c       9.86972
_cell_angle_alpha    90
_cell_angle_beta     90
_cell_angle_gamma    90

_symmetry_space_group_name_H-M    "P 1"
_symmetry_int_tables_number       1

loop_
  _symmetry_equiv_pos_as_xyz
  'x, y, z'

loop_
  _atom_site_label
  _atom_site_occupancy
  _atom_site_fract_x
  _atom_site_fract_y
  _atom_site_fract_z
  _atom_site_thermal_displace_type
  _atom_site_B_iso_or_equiv
  _atom_site_type_symbol
  Ir1      1.0000 0.37751  0.66800  0.50000  Biso   1.000  Ir
  Ir2      1.0000 0.62249  0.33200  0.50000  Biso   1.000  Ir
  Ir3      1.0000 0.12249  0.16800  0.50000  Biso   1.000  Ir
  Ir4      1.0000 0.87751  0.83200  0.50000  Biso   1.000  Ir
  Ir5      1.0000 0.00000  0.00000  0.25000  Biso   1.000  Ir
  Ir6      1.0000 0.00000  0.00000  0.75000  Biso   1.000  Ir
  Ir7      1.0000 0.87751  0.16800  0.00000  Biso   1.000  Ir
  Ir8      1.0000 0.12249  0.83200  0.00000  Biso   1.000  Ir
  Ir9      1.0000 0.62249  0.66800  0.00000  Biso   1.000  Ir
  Ir10     1.0000 0.37751  0.33200  0.00000  Biso   1.000  Ir
  Ir11     1.0000 0.50000  0.50000  0.75000  Biso   1.000  Ir
  Ir12     1.0000 0.50000  0.50000  0.25000  Biso   1.000  Ir
  O1       1.0000 0.24856  0.90989  0.15545  Biso   1.000  O
  O2       1.0000 0.75144  0.09011  0.15545  Biso   1.000  O
  O3       1.0000 0.75144  0.90989  0.34455  Biso   1.000  O
  O4       1.0000 0.24856  0.09011  0.34455  Biso   1.000  O
  O5       1.0000 0.75144  0.09011  0.84455  Biso   1.000  O
  O6       1.0000 0.24856  0.90989  0.84455  Biso   1.000  O
  O7       1.0000 0.24856  0.09011  0.65545  Biso   1.000  O
  O8       1.0000 0.75144  0.90989  0.65545  Biso   1.000  O
  O9       1.0000 0.74369  0.67746  0.50000  Biso   1.000  O
  O10      1.0000 0.25631  0.32254  0.50000  Biso   1.000  O
  O11      1.0000 0.75631  0.17746  0.50000  Biso   1.000  O
  O12      1.0000 0.24369  0.82254  0.50000  Biso   1.000  O
  O13      1.0000 0.74856  0.40988  0.65545  Biso   1.000  O
  O14      1.0000 0.25144  0.59011  0.65545  Biso   1.000  O
  O15      1.0000 0.25144  0.40988  0.84455  Biso   1.000  O
  O16      1.0000 0.74856  0.59011  0.84455  Biso   1.000  O
  O17      1.0000 0.25144  0.59011  0.34455  Biso   1.000  O
  O18      1.0000 0.74856  0.40988  0.34455  Biso   1.000  O
  O19      1.0000 0.74856  0.59011  0.15545  Biso   1.000  O
  O20      1.0000 0.25144  0.40988  0.15545  Biso   1.000  O
  O21      1.0000 0.24369  0.17746  0.00000  Biso   1.000  O
  O22      1.0000 0.75631  0.82254  0.00000  Biso   1.000  O
  O23      1.0000 0.25631  0.67746  0.00000  Biso   1.000  O
  O24      1.0000 0.74369  0.32254  0.00000  Biso   1.000  O
