data_image0
_cell_length_a       6.39305
_cell_length_b       17.1908
_cell_length_c       20.9662
_cell_angle_alpha    90
_cell_angle_beta     90
_cell_angle_gamma    90

_symmetry_space_group_name_H-M    "P 1"
_symmetry_int_tables_number       1

loop_
  _symmetry_equiv_pos_as_xyz
  'x, y, z'

loop_
  _atom_site_label
  _atom_site_occupancy
  _atom_site_fract_x
  _atom_site_fract_y
  _atom_site_fract_z
  _atom_site_thermal_displace_type
  _atom_site_B_iso_or_equiv
  _atom_site_type_symbol
  O1       1.0000 0.50000  0.17327  0.11624  Biso   1.000  O
  O2       1.0000 0.00000  0.32673  0.61624  Biso   1.000  O
  O3       1.0000 0.50000  0.17327  0.38376  Biso   1.000  O
  O4       1.0000 0.00000  0.32673  0.88376  Biso   1.000  O
  O5       1.0000 0.25000  0.25000  0.00000  Biso   1.000  O
  O6       1.0000 0.25000  0.25000  0.50000  Biso   1.000  O
  O7       1.0000 0.75000  0.25000  0.50000  Biso   1.000  O
  O8       1.0000 0.75000  0.25000  0.00000  Biso   1.000  O
  O9       1.0000 0.50000  0.35747  0.09869  Biso   1.000  O
  O10      1.0000 0.00000  0.14253  0.59869  Biso   1.000  O
  O11      1.0000 0.50000  0.35747  0.40131  Biso   1.000  O
  O12      1.0000 0.00000  0.14253  0.90131  Biso   1.000  O
  O13      1.0000 0.25008  0.01291  0.13200  Biso   1.000  O
  O14      1.0000 0.24992  0.48709  0.63200  Biso   1.000  O
  O15      1.0000 0.74992  0.01291  0.36800  Biso   1.000  O
  O16      1.0000 0.75008  0.48709  0.86799  Biso   1.000  O
  O17      1.0000 0.24992  0.48709  0.86799  Biso   1.000  O
  O18      1.0000 0.25008  0.01291  0.36800  Biso   1.000  O
  O19      1.0000 0.75008  0.48709  0.63200  Biso   1.000  O
  O20      1.0000 0.74992  0.01291  0.13200  Biso   1.000  O
  O21      1.0000 0.50000  0.08537  0.25000  Biso   1.000  O
  O22      1.0000 0.00000  0.41463  0.75000  Biso   1.000  O
  O23      1.0000 0.00000  0.00000  0.00000  Biso   1.000  O
  O24      1.0000 0.00000  0.00000  0.50000  Biso   1.000  O
  O25      1.0000 0.00000  0.67327  0.11624  Biso   1.000  O
  O26      1.0000 0.50000  0.82673  0.61624  Biso   1.000  O
  O27      1.0000 0.00000  0.67327  0.38376  Biso   1.000  O
  O28      1.0000 0.50000  0.82673  0.88376  Biso   1.000  O
  O29      1.0000 0.75000  0.75000  0.00000  Biso   1.000  O
  O30      1.0000 0.75000  0.75000  0.50000  Biso   1.000  O
  O31      1.0000 0.25000  0.75000  0.50000  Biso   1.000  O
  O32      1.0000 0.25000  0.75000  0.00000  Biso   1.000  O
  O33      1.0000 0.00000  0.85747  0.09869  Biso   1.000  O
  O34      1.0000 0.50000  0.64253  0.59869  Biso   1.000  O
  O35      1.0000 0.00000  0.85747  0.40131  Biso   1.000  O
  O36      1.0000 0.50000  0.64253  0.90131  Biso   1.000  O
  O37      1.0000 0.75008  0.51291  0.13200  Biso   1.000  O
  O38      1.0000 0.74992  0.98709  0.63200  Biso   1.000  O
  O39      1.0000 0.24992  0.51291  0.36800  Biso   1.000  O
  O40      1.0000 0.25008  0.98709  0.86799  Biso   1.000  O
  O41      1.0000 0.74992  0.98709  0.86799  Biso   1.000  O
  O42      1.0000 0.75008  0.51291  0.36800  Biso   1.000  O
  O43      1.0000 0.25008  0.98709  0.63200  Biso   1.000  O
  O44      1.0000 0.24992  0.51291  0.13200  Biso   1.000  O
  O45      1.0000 0.00000  0.58537  0.25000  Biso   1.000  O
  O46      1.0000 0.50000  0.91463  0.75000  Biso   1.000  O
  O47      1.0000 0.50000  0.50000  0.00000  Biso   1.000  O
  O48      1.0000 0.50000  0.50000  0.50000  Biso   1.000  O
  Ir1      1.0000 0.50000  0.25745  0.05343  Biso   1.000  Ir
  Ir2      1.0000 0.00000  0.24255  0.55343  Biso   1.000  Ir
  Ir3      1.0000 0.50000  0.25745  0.44656  Biso   1.000  Ir
  Ir4      1.0000 0.00000  0.24255  0.94656  Biso   1.000  Ir
  Ir5      1.0000 0.50000  0.07095  0.15737  Biso   1.000  Ir
  Ir6      1.0000 0.00000  0.42905  0.65737  Biso   1.000  Ir
  Ir7      1.0000 0.50000  0.07095  0.34263  Biso   1.000  Ir
  Ir8      1.0000 0.00000  0.42905  0.84263  Biso   1.000  Ir
  Ir9      1.0000 0.50000  0.47126  0.09043  Biso   1.000  Ir
  Ir10     1.0000 0.00000  0.02874  0.59043  Biso   1.000  Ir
  Ir11     1.0000 0.50000  0.47126  0.40957  Biso   1.000  Ir
  Ir12     1.0000 0.00000  0.02874  0.90957  Biso   1.000  Ir
  Ir13     1.0000 0.00000  0.75745  0.05343  Biso   1.000  Ir
  Ir14     1.0000 0.50000  0.74255  0.55343  Biso   1.000  Ir
  Ir15     1.0000 0.00000  0.75745  0.44656  Biso   1.000  Ir
  Ir16     1.0000 0.50000  0.74255  0.94656  Biso   1.000  Ir
  Ir17     1.0000 0.00000  0.57095  0.15737  Biso   1.000  Ir
  Ir18     1.0000 0.50000  0.92905  0.65737  Biso   1.000  Ir
  Ir19     1.0000 0.00000  0.57095  0.34263  Biso   1.000  Ir
  Ir20     1.0000 0.50000  0.92905  0.84263  Biso   1.000  Ir
  Ir21     1.0000 0.00000  0.97126  0.09043  Biso   1.000  Ir
  Ir22     1.0000 0.50000  0.52874  0.59043  Biso   1.000  Ir
  Ir23     1.0000 0.00000  0.97126  0.40957  Biso   1.000  Ir
  Ir24     1.0000 0.50000  0.52874  0.90957  Biso   1.000  Ir
