data_image0
_cell_length_a       7.43145
_cell_length_b       4.29058
_cell_length_c       34.8846
_cell_angle_alpha    90
_cell_angle_beta     90.1135
_cell_angle_gamma    90

_symmetry_space_group_name_H-M    "P 1"
_symmetry_int_tables_number       1

loop_
  _symmetry_equiv_pos_as_xyz
  'x, y, z'

loop_
  _atom_site_label
  _atom_site_occupancy
  _atom_site_fract_x
  _atom_site_fract_y
  _atom_site_fract_z
  _atom_site_thermal_displace_type
  _atom_site_B_iso_or_equiv
  _atom_site_type_symbol
  Ir1      1.0000 0.16666  0.50000  0.95006  Biso   1.000  Ir
  Ir2      1.0000 0.00000  0.00000  0.75004  Biso   1.000  Ir
  Ir3      1.0000 0.16666  0.50000  0.55001  Biso   1.000  Ir
  Ir4      1.0000 0.00000  0.00000  0.34999  Biso   1.000  Ir
  Ir5      1.0000 0.00000  0.00000  0.15002  Biso   1.000  Ir
  Ir6      1.0000 0.66666  0.00000  0.95006  Biso   1.000  Ir
  Ir7      1.0000 0.50000  0.50000  0.75004  Biso   1.000  Ir
  Ir8      1.0000 0.66666  0.00000  0.55001  Biso   1.000  Ir
  Ir9      1.0000 0.50000  0.50000  0.34999  Biso   1.000  Ir
  Ir10     1.0000 0.50000  0.50000  0.15002  Biso   1.000  Ir
  O1       1.0000 0.00000  0.00000  0.99943  Biso   1.000  O
  O2       1.0000 0.33333  0.00000  0.90057  Biso   1.000  O
  O3       1.0000 0.16668  0.50000  0.79944  Biso   1.000  O
  O4       1.0000 0.33332  0.00000  0.70054  Biso   1.000  O
  O5       1.0000 0.00000  0.00000  0.59941  Biso   1.000  O
  O6       1.0000 0.33333  0.00000  0.50054  Biso   1.000  O
  O7       1.0000 0.16668  0.50000  0.39942  Biso   1.000  O
  O8       1.0000 0.33332  0.00000  0.30054  Biso   1.000  O
  O9       1.0000 0.16668  0.50000  0.19946  Biso   1.000  O
  O10      1.0000 0.33332  0.00000  0.10053  Biso   1.000  O
  O11      1.0000 0.50000  0.50000  0.99943  Biso   1.000  O
  O12      1.0000 0.83333  0.50000  0.90057  Biso   1.000  O
  O13      1.0000 0.66668  0.00000  0.79944  Biso   1.000  O
  O14      1.0000 0.83332  0.50000  0.70054  Biso   1.000  O
  O15      1.0000 0.50000  0.50000  0.59941  Biso   1.000  O
  O16      1.0000 0.83333  0.50000  0.50054  Biso   1.000  O
  O17      1.0000 0.66668  0.00000  0.39942  Biso   1.000  O
  O18      1.0000 0.83332  0.50000  0.30054  Biso   1.000  O
  O19      1.0000 0.66668  0.00000  0.19946  Biso   1.000  O
  O20      1.0000 0.83332  0.50000  0.10053  Biso   1.000  O
