data_image0
_cell_length_a       7.43029
_cell_length_b       4.28981
_cell_length_c       55.8123
_cell_angle_alpha    90
_cell_angle_beta     90.3662
_cell_angle_gamma    90

_symmetry_space_group_name_H-M    "P 1"
_symmetry_int_tables_number       1

loop_
  _symmetry_equiv_pos_as_xyz
  'x, y, z'

loop_
  _atom_site_label
  _atom_site_occupancy
  _atom_site_fract_x
  _atom_site_fract_y
  _atom_site_fract_z
  _atom_site_thermal_displace_type
  _atom_site_B_iso_or_equiv
  _atom_site_type_symbol
  Ir1      1.0000 0.16665  0.50000  0.96879  Biso   1.000  Ir
  Ir2      1.0000 0.00000  0.00000  0.84376  Biso   1.000  Ir
  Ir3      1.0000 0.16665  0.50000  0.71876  Biso   1.000  Ir
  Ir4      1.0000 0.00000  0.00000  0.59374  Biso   1.000  Ir
  Ir5      1.0000 0.16665  0.50000  0.46877  Biso   1.000  Ir
  Ir6      1.0000 0.00000  0.00000  0.34374  Biso   1.000  Ir
  Ir7      1.0000 0.00000  0.00000  0.21873  Biso   1.000  Ir
  Ir8      1.0000 0.00000  0.00000  0.09375  Biso   1.000  Ir
  Ir9      1.0000 0.66665  0.00000  0.96879  Biso   1.000  Ir
  Ir10     1.0000 0.50000  0.50000  0.84376  Biso   1.000  Ir
  Ir11     1.0000 0.66665  0.00000  0.71876  Biso   1.000  Ir
  Ir12     1.0000 0.50000  0.50000  0.59374  Biso   1.000  Ir
  Ir13     1.0000 0.66665  0.00000  0.46877  Biso   1.000  Ir
  Ir14     1.0000 0.50000  0.50000  0.34374  Biso   1.000  Ir
  Ir15     1.0000 0.50000  0.50000  0.21873  Biso   1.000  Ir
  Ir16     1.0000 0.50000  0.50000  0.09375  Biso   1.000  Ir
  O1       1.0000 0.00000  0.00000  0.99968  Biso   1.000  O
  O2       1.0000 0.33332  0.00000  0.93782  Biso   1.000  O
  O3       1.0000 0.16669  0.50000  0.87467  Biso   1.000  O
  O4       1.0000 0.33334  0.00000  0.81284  Biso   1.000  O
  O5       1.0000 0.00000  0.00000  0.74967  Biso   1.000  O
  O6       1.0000 0.33332  0.00000  0.68781  Biso   1.000  O
  O7       1.0000 0.16668  0.50000  0.62465  Biso   1.000  O
  O8       1.0000 0.33334  0.00000  0.56283  Biso   1.000  O
  O9       1.0000 0.00000  0.00000  0.49967  Biso   1.000  O
  O10      1.0000 0.33332  0.00000  0.43781  Biso   1.000  O
  O11      1.0000 0.16668  0.50000  0.37467  Biso   1.000  O
  O12      1.0000 0.33334  0.00000  0.31286  Biso   1.000  O
  O13      1.0000 0.16668  0.50000  0.24967  Biso   1.000  O
  O14      1.0000 0.33331  0.00000  0.18780  Biso   1.000  O
  O15      1.0000 0.16668  0.50000  0.12465  Biso   1.000  O
  O16      1.0000 0.33334  0.00000  0.06284  Biso   1.000  O
  O17      1.0000 0.50000  0.50000  0.99968  Biso   1.000  O
  O18      1.0000 0.83332  0.50000  0.93782  Biso   1.000  O
  O19      1.0000 0.66669  0.00000  0.87467  Biso   1.000  O
  O20      1.0000 0.83334  0.50000  0.81284  Biso   1.000  O
  O21      1.0000 0.50000  0.50000  0.74967  Biso   1.000  O
  O22      1.0000 0.83332  0.50000  0.68781  Biso   1.000  O
  O23      1.0000 0.66668  0.00000  0.62465  Biso   1.000  O
  O24      1.0000 0.83334  0.50000  0.56283  Biso   1.000  O
  O25      1.0000 0.50000  0.50000  0.49967  Biso   1.000  O
  O26      1.0000 0.83332  0.50000  0.43781  Biso   1.000  O
  O27      1.0000 0.66668  0.00000  0.37467  Biso   1.000  O
  O28      1.0000 0.83334  0.50000  0.31286  Biso   1.000  O
  O29      1.0000 0.66668  0.00000  0.24967  Biso   1.000  O
  O30      1.0000 0.83331  0.50000  0.18780  Biso   1.000  O
  O31      1.0000 0.66668  0.00000  0.12465  Biso   1.000  O
  O32      1.0000 0.83334  0.50000  0.06284  Biso   1.000  O
