data_image0
_cell_length_a       14.4213
_cell_length_b       6.92862
_cell_length_c       14.7028
_cell_angle_alpha    90
_cell_angle_beta     104.803
_cell_angle_gamma    90

_symmetry_space_group_name_H-M    "P 1"
_symmetry_int_tables_number       1

loop_
  _symmetry_equiv_pos_as_xyz
  'x, y, z'

loop_
  _atom_site_label
  _atom_site_occupancy
  _atom_site_fract_x
  _atom_site_fract_y
  _atom_site_fract_z
  _atom_site_thermal_displace_type
  _atom_site_B_iso_or_equiv
  _atom_site_type_symbol
  Ir1      1.0000 0.00000  0.75001  0.00000  Biso   1.000  Ir
  Ir2      1.0000 0.00000  0.24999  0.00000  Biso   1.000  Ir
  Ir3      1.0000 0.27215  0.00000  0.08841  Biso   1.000  Ir
  Ir4      1.0000 0.22785  0.50000  0.91159  Biso   1.000  Ir
  Ir5      1.0000 0.09255  0.00000  0.41640  Biso   1.000  Ir
  Ir6      1.0000 0.40745  0.50000  0.58360  Biso   1.000  Ir
  Ir7      1.0000 0.11531  0.50000  0.43337  Biso   1.000  Ir
  Ir8      1.0000 0.38469  0.00000  0.56662  Biso   1.000  Ir
  Ir9      1.0000 0.50000  0.25001  0.00000  Biso   1.000  Ir
  Ir10     1.0000 0.50000  0.74999  0.00000  Biso   1.000  Ir
  Ir11     1.0000 0.77215  0.50000  0.08841  Biso   1.000  Ir
  Ir12     1.0000 0.72785  0.00000  0.91159  Biso   1.000  Ir
  Ir13     1.0000 0.59255  0.50000  0.41640  Biso   1.000  Ir
  Ir14     1.0000 0.90745  0.00000  0.58360  Biso   1.000  Ir
  Ir15     1.0000 0.61531  0.00000  0.43337  Biso   1.000  Ir
  Ir16     1.0000 0.88469  0.50000  0.56662  Biso   1.000  Ir
  O1       1.0000 0.17273  0.50000  0.11342  Biso   1.000  O
  O2       1.0000 0.32726  0.00000  0.88658  Biso   1.000  O
  O3       1.0000 0.38528  0.50000  0.11423  Biso   1.000  O
  O4       1.0000 0.11472  0.00000  0.88577  Biso   1.000  O
  O5       1.0000 0.17185  0.78293  0.25221  Biso   1.000  O
  O6       1.0000 0.32815  0.28293  0.74779  Biso   1.000  O
  O7       1.0000 0.32815  0.71707  0.74779  Biso   1.000  O
  O8       1.0000 0.17185  0.21707  0.25221  Biso   1.000  O
  O9       1.0000 0.45460  0.21495  0.25273  Biso   1.000  O
  O10      1.0000 0.04540  0.71495  0.74727  Biso   1.000  O
  O11      1.0000 0.04540  0.28505  0.74727  Biso   1.000  O
  O12      1.0000 0.45460  0.78505  0.25273  Biso   1.000  O
  O13      1.0000 0.34869  0.28193  0.39646  Biso   1.000  O
  O14      1.0000 0.15131  0.78193  0.60354  Biso   1.000  O
  O15      1.0000 0.15131  0.21807  0.60354  Biso   1.000  O
  O16      1.0000 0.34869  0.71807  0.39646  Biso   1.000  O
  O17      1.0000 0.67273  0.00000  0.11342  Biso   1.000  O
  O18      1.0000 0.82727  0.50000  0.88658  Biso   1.000  O
  O19      1.0000 0.88528  0.00000  0.11423  Biso   1.000  O
  O20      1.0000 0.61472  0.50000  0.88577  Biso   1.000  O
  O21      1.0000 0.67185  0.28293  0.25221  Biso   1.000  O
  O22      1.0000 0.82815  0.78293  0.74779  Biso   1.000  O
  O23      1.0000 0.82815  0.21707  0.74779  Biso   1.000  O
  O24      1.0000 0.67185  0.71707  0.25221  Biso   1.000  O
  O25      1.0000 0.95460  0.71495  0.25273  Biso   1.000  O
  O26      1.0000 0.54540  0.21495  0.74727  Biso   1.000  O
  O27      1.0000 0.54540  0.78505  0.74727  Biso   1.000  O
  O28      1.0000 0.95460  0.28505  0.25273  Biso   1.000  O
  O29      1.0000 0.84869  0.78193  0.39646  Biso   1.000  O
  O30      1.0000 0.65131  0.28193  0.60354  Biso   1.000  O
  O31      1.0000 0.65131  0.71807  0.60354  Biso   1.000  O
  O32      1.0000 0.84869  0.21807  0.39646  Biso   1.000  O
