data_image0
_cell_length_a       5.36317
_cell_length_b       5.36317
_cell_length_c       89.8773
_cell_angle_alpha    90
_cell_angle_beta     90
_cell_angle_gamma    120

_symmetry_space_group_name_H-M    "P 1"
_symmetry_int_tables_number       1

loop_
  _symmetry_equiv_pos_as_xyz
  'x, y, z'

loop_
  _atom_site_label
  _atom_site_occupancy
  _atom_site_fract_x
  _atom_site_fract_y
  _atom_site_fract_z
  _atom_site_thermal_displace_type
  _atom_site_B_iso_or_equiv
  _atom_site_type_symbol
  Ir1      1.0000 0.33333  0.66667  0.01923  Biso   1.000  Ir
  Ir2      1.0000 0.00000  0.00000  0.09614  Biso   1.000  Ir
  Ir3      1.0000 0.33333  0.66667  0.17307  Biso   1.000  Ir
  Ir4      1.0000 0.00000  0.00000  0.25000  Biso   1.000  Ir
  Ir5      1.0000 0.33333  0.66667  0.32692  Biso   1.000  Ir
  Ir6      1.0000 0.33333  0.66667  0.40385  Biso   1.000  Ir
  Ir7      1.0000 0.00000  0.00000  0.48076  Biso   1.000  Ir
  Ir8      1.0000 0.33333  0.66667  0.55768  Biso   1.000  Ir
  Ir9      1.0000 0.00000  0.00000  0.63462  Biso   1.000  Ir
  Ir10     1.0000 0.33333  0.66667  0.71156  Biso   1.000  Ir
  Ir11     1.0000 0.33333  0.66667  0.78846  Biso   1.000  Ir
  Ir12     1.0000 0.00000  0.00000  0.86538  Biso   1.000  Ir
  Ir13     1.0000 0.00000  0.00000  0.94231  Biso   1.000  Ir
  O1       1.0000 0.00000  0.00000  0.00000  Biso   1.000  O
  O2       1.0000 0.66667  0.33333  0.03850  Biso   1.000  O
  O3       1.0000 0.33333  0.66667  0.07689  Biso   1.000  O
  O4       1.0000 0.66667  0.33333  0.11541  Biso   1.000  O
  O5       1.0000 0.00000  0.00000  0.15382  Biso   1.000  O
  O6       1.0000 0.66667  0.33333  0.19235  Biso   1.000  O
  O7       1.0000 0.33333  0.66667  0.23074  Biso   1.000  O
  O8       1.0000 0.66667  0.33333  0.26926  Biso   1.000  O
  O9       1.0000 0.00000  0.00000  0.30766  Biso   1.000  O
  O10      1.0000 0.66667  0.33333  0.34618  Biso   1.000  O
  O11      1.0000 0.00000  0.00000  0.38459  Biso   1.000  O
  O12      1.0000 0.66667  0.33333  0.42312  Biso   1.000  O
  O13      1.0000 0.33333  0.66667  0.46151  Biso   1.000  O
  O14      1.0000 0.66667  0.33333  0.50004  Biso   1.000  O
  O15      1.0000 0.00000  0.00000  0.53843  Biso   1.000  O
  O16      1.0000 0.66667  0.33333  0.57696  Biso   1.000  O
  O17      1.0000 0.33333  0.66667  0.61535  Biso   1.000  O
  O18      1.0000 0.66667  0.33333  0.65388  Biso   1.000  O
  O19      1.0000 0.00000  0.00000  0.69227  Biso   1.000  O
  O20      1.0000 0.66667  0.33333  0.73080  Biso   1.000  O
  O21      1.0000 0.00000  0.00000  0.76919  Biso   1.000  O
  O22      1.0000 0.66667  0.33333  0.80773  Biso   1.000  O
  O23      1.0000 0.33333  0.66667  0.84611  Biso   1.000  O
  O24      1.0000 0.66667  0.33333  0.88465  Biso   1.000  O
  O25      1.0000 0.33333  0.66667  0.92304  Biso   1.000  O
  O26      1.0000 0.66667  0.33333  0.96158  Biso   1.000  O
