data_image0
_cell_length_a       5.83827
_cell_length_b       10.4655
_cell_length_c       12.3316
_cell_angle_alpha    90
_cell_angle_beta     90
_cell_angle_gamma    90

_symmetry_space_group_name_H-M    "P 1"
_symmetry_int_tables_number       1

loop_
  _symmetry_equiv_pos_as_xyz
  'x, y, z'

loop_
  _atom_site_label
  _atom_site_occupancy
  _atom_site_fract_x
  _atom_site_fract_y
  _atom_site_fract_z
  _atom_site_thermal_displace_type
  _atom_site_B_iso_or_equiv
  _atom_site_type_symbol
  O1       1.0000 0.63767  0.16494  0.04459  Biso   1.000  O
  O2       1.0000 0.36233  0.83506  0.04459  Biso   1.000  O
  O3       1.0000 0.63767  0.33506  0.54459  Biso   1.000  O
  O4       1.0000 0.36233  0.66494  0.54459  Biso   1.000  O
  O5       1.0000 0.30227  0.38922  0.11543  Biso   1.000  O
  O6       1.0000 0.69773  0.61078  0.11543  Biso   1.000  O
  O7       1.0000 0.30227  0.11078  0.61543  Biso   1.000  O
  O8       1.0000 0.69773  0.88922  0.61543  Biso   1.000  O
  O9       1.0000 0.20903  0.10731  0.20500  Biso   1.000  O
  O10      1.0000 0.79097  0.89269  0.20500  Biso   1.000  O
  O11      1.0000 0.20903  0.39269  0.70500  Biso   1.000  O
  O12      1.0000 0.79097  0.60731  0.70500  Biso   1.000  O
  O13      1.0000 0.70871  0.39263  0.28952  Biso   1.000  O
  O14      1.0000 0.29129  0.60736  0.28952  Biso   1.000  O
  O15      1.0000 0.70871  0.10737  0.78952  Biso   1.000  O
  O16      1.0000 0.29129  0.89264  0.78952  Biso   1.000  O
  O17      1.0000 0.80236  0.11086  0.37916  Biso   1.000  O
  O18      1.0000 0.19765  0.88914  0.37916  Biso   1.000  O
  O19      1.0000 0.80236  0.38914  0.87916  Biso   1.000  O
  O20      1.0000 0.19765  0.61086  0.87916  Biso   1.000  O
  O21      1.0000 0.13759  0.33522  0.45001  Biso   1.000  O
  O22      1.0000 0.86241  0.66478  0.45001  Biso   1.000  O
  O23      1.0000 0.13759  0.16478  0.95001  Biso   1.000  O
  O24      1.0000 0.86241  0.83522  0.95001  Biso   1.000  O
  Ir1      1.0000 0.31730  0.20572  0.08109  Biso   1.000  Ir
  Ir2      1.0000 0.68270  0.79429  0.08109  Biso   1.000  Ir
  Ir3      1.0000 0.31730  0.29429  0.58109  Biso   1.000  Ir
  Ir4      1.0000 0.68270  0.70571  0.58109  Biso   1.000  Ir
  Ir5      1.0000 0.50000  0.00000  0.70457  Biso   1.000  Ir
  Ir6      1.0000 0.50000  0.50000  0.20457  Biso   1.000  Ir
  Ir7      1.0000 0.00000  0.00000  0.28994  Biso   1.000  Ir
  Ir8      1.0000 0.00000  0.50000  0.78994  Biso   1.000  Ir
  Ir9      1.0000 0.81728  0.29436  0.41344  Biso   1.000  Ir
  Ir10     1.0000 0.18273  0.70564  0.41344  Biso   1.000  Ir
  Ir11     1.0000 0.81728  0.20564  0.91344  Biso   1.000  Ir
  Ir12     1.0000 0.18273  0.79436  0.91344  Biso   1.000  Ir
