data_image0
_cell_length_a       7.31027
_cell_length_b       7.31027
_cell_length_c       28.6384
_cell_angle_alpha    90
_cell_angle_beta     90
_cell_angle_gamma    120

_symmetry_space_group_name_H-M    "P 1"
_symmetry_int_tables_number       1

loop_
  _symmetry_equiv_pos_as_xyz
  'x, y, z'

loop_
  _atom_site_label
  _atom_site_occupancy
  _atom_site_fract_x
  _atom_site_fract_y
  _atom_site_fract_z
  _atom_site_thermal_displace_type
  _atom_site_B_iso_or_equiv
  _atom_site_type_symbol
  Ir1      1.0000 0.82862  0.17138  0.08309  Biso   1.000  Ir
  Ir2      1.0000 0.82862  0.65724  0.08309  Biso   1.000  Ir
  Ir3      1.0000 0.34276  0.17138  0.08309  Biso   1.000  Ir
  Ir4      1.0000 0.16286  0.83714  0.24931  Biso   1.000  Ir
  Ir5      1.0000 0.16286  0.32573  0.24931  Biso   1.000  Ir
  Ir6      1.0000 0.67427  0.83714  0.24931  Biso   1.000  Ir
  Ir7      1.0000 0.49983  0.50017  0.41636  Biso   1.000  Ir
  Ir8      1.0000 0.49983  0.99966  0.41636  Biso   1.000  Ir
  Ir9      1.0000 0.00034  0.50017  0.41636  Biso   1.000  Ir
  Ir10     1.0000 0.33333  0.66667  0.14205  Biso   1.000  Ir
  Ir11     1.0000 0.33333  0.66667  0.33234  Biso   1.000  Ir
  Ir12     1.0000 0.83324  0.16676  0.58322  Biso   1.000  Ir
  Ir13     1.0000 0.83324  0.66647  0.58322  Biso   1.000  Ir
  Ir14     1.0000 0.33353  0.16676  0.58322  Biso   1.000  Ir
  Ir15     1.0000 0.66667  0.33333  0.49973  Biso   1.000  Ir
  Ir16     1.0000 0.16659  0.83341  0.74993  Biso   1.000  Ir
  Ir17     1.0000 0.16659  0.33319  0.74993  Biso   1.000  Ir
  Ir18     1.0000 0.66681  0.83341  0.74993  Biso   1.000  Ir
  Ir19     1.0000 0.00000  0.00000  0.66648  Biso   1.000  Ir
  Ir20     1.0000 0.50024  0.49976  0.91670  Biso   1.000  Ir
  Ir21     1.0000 0.50024  0.00049  0.91670  Biso   1.000  Ir
  Ir22     1.0000 0.99951  0.49976  0.91670  Biso   1.000  Ir
  Ir23     1.0000 0.33333  0.66667  0.83323  Biso   1.000  Ir
  Ir24     1.0000 0.00000  0.00000  0.97790  Biso   1.000  Ir
  O1       1.0000 0.51362  0.48638  0.04947  Biso   1.000  O
  O2       1.0000 0.51362  0.02725  0.04947  Biso   1.000  O
  O3       1.0000 0.97275  0.48638  0.04947  Biso   1.000  O
  O4       1.0000 0.66667  0.33333  0.11872  Biso   1.000  O
  O5       1.0000 0.15525  0.84475  0.12033  Biso   1.000  O
  O6       1.0000 0.15525  0.31049  0.12033  Biso   1.000  O
  O7       1.0000 0.68951  0.84475  0.12033  Biso   1.000  O
  O8       1.0000 0.84363  0.15637  0.21633  Biso   1.000  O
  O9       1.0000 0.84363  0.68725  0.21633  Biso   1.000  O
  O10      1.0000 0.31275  0.15637  0.21633  Biso   1.000  O
  O11      1.0000 0.00000  0.00000  0.04862  Biso   1.000  O
  O12      1.0000 0.00000  0.00000  0.28452  Biso   1.000  O
  O13      1.0000 0.18716  0.81284  0.37735  Biso   1.000  O
  O14      1.0000 0.18716  0.37433  0.37735  Biso   1.000  O
  O15      1.0000 0.62567  0.81284  0.37735  Biso   1.000  O
  O16      1.0000 0.47827  0.52173  0.28832  Biso   1.000  O
  O17      1.0000 0.47827  0.95654  0.28832  Biso   1.000  O
  O18      1.0000 0.04346  0.52173  0.28832  Biso   1.000  O
  O19      1.0000 0.33333  0.66667  0.45046  Biso   1.000  O
  O20      1.0000 0.33333  0.66667  0.21258  Biso   1.000  O
  O21      1.0000 0.81265  0.18735  0.45570  Biso   1.000  O
  O22      1.0000 0.81265  0.62530  0.45570  Biso   1.000  O
  O23      1.0000 0.37470  0.18735  0.45570  Biso   1.000  O
  O24      1.0000 0.52046  0.47954  0.54424  Biso   1.000  O
  O25      1.0000 0.52046  0.04092  0.54424  Biso   1.000  O
  O26      1.0000 0.95908  0.47954  0.54424  Biso   1.000  O
  O27      1.0000 0.66667  0.33333  0.38242  Biso   1.000  O
  O28      1.0000 0.66667  0.33333  0.61729  Biso   1.000  O
  O29      1.0000 0.14603  0.85397  0.62248  Biso   1.000  O
  O30      1.0000 0.14603  0.29206  0.62248  Biso   1.000  O
  O31      1.0000 0.70794  0.85397  0.62248  Biso   1.000  O
  O32      1.0000 0.85380  0.14620  0.71094  Biso   1.000  O
  O33      1.0000 0.85380  0.70761  0.71094  Biso   1.000  O
  O34      1.0000 0.29239  0.14620  0.71094  Biso   1.000  O
  O35      1.0000 0.00000  0.00000  0.54925  Biso   1.000  O
  O36      1.0000 0.00000  0.00000  0.78399  Biso   1.000  O
  O37      1.0000 0.18735  0.81265  0.87761  Biso   1.000  O
  O38      1.0000 0.18735  0.37469  0.87761  Biso   1.000  O
  O39      1.0000 0.62531  0.81265  0.87761  Biso   1.000  O
  O40      1.0000 0.47938  0.52062  0.78917  Biso   1.000  O
  O41      1.0000 0.47938  0.95875  0.78917  Biso   1.000  O
  O42      1.0000 0.04125  0.52062  0.78917  Biso   1.000  O
  O43      1.0000 0.33333  0.66667  0.95124  Biso   1.000  O
  O44      1.0000 0.33333  0.66667  0.71595  Biso   1.000  O
  O45      1.0000 0.82206  0.17794  0.95226  Biso   1.000  O
  O46      1.0000 0.82206  0.64413  0.95226  Biso   1.000  O
  O47      1.0000 0.35587  0.17794  0.95226  Biso   1.000  O
  O48      1.0000 0.66667  0.33333  0.88312  Biso   1.000  O
