data_image0
_cell_length_a       6.23504
_cell_length_b       9.3609
_cell_length_c       6.90089
_cell_angle_alpha    90
_cell_angle_beta     90
_cell_angle_gamma    90

_symmetry_space_group_name_H-M    "P 1"
_symmetry_int_tables_number       1

loop_
  _symmetry_equiv_pos_as_xyz
  'x, y, z'

loop_
  _atom_site_label
  _atom_site_occupancy
  _atom_site_fract_x
  _atom_site_fract_y
  _atom_site_fract_z
  _atom_site_thermal_displace_type
  _atom_site_B_iso_or_equiv
  _atom_site_type_symbol
  O1       1.0000 0.50000  0.73593  0.03410  Biso   1.000  O
  O2       1.0000 0.50000  0.26407  0.53410  Biso   1.000  O
  O3       1.0000 0.50000  0.73593  0.46590  Biso   1.000  O
  O4       1.0000 0.50000  0.26407  0.96590  Biso   1.000  O
  O5       1.0000 0.23494  0.97500  0.25000  Biso   1.000  O
  O6       1.0000 0.76506  0.02500  0.75000  Biso   1.000  O
  O7       1.0000 0.76506  0.97500  0.25000  Biso   1.000  O
  O8       1.0000 0.23494  0.02500  0.75000  Biso   1.000  O
  O9       1.0000 0.00000  0.23593  0.03410  Biso   1.000  O
  O10      1.0000 0.00000  0.76407  0.53410  Biso   1.000  O
  O11      1.0000 0.00000  0.23593  0.46590  Biso   1.000  O
  O12      1.0000 0.00000  0.76407  0.96590  Biso   1.000  O
  O13      1.0000 0.73494  0.47500  0.25000  Biso   1.000  O
  O14      1.0000 0.26506  0.52500  0.75000  Biso   1.000  O
  O15      1.0000 0.26506  0.47500  0.25000  Biso   1.000  O
  O16      1.0000 0.73494  0.52500  0.75000  Biso   1.000  O
  Ir1      1.0000 0.50000  0.50000  0.00000  Biso   1.000  Ir
  Ir2      1.0000 0.50000  0.50000  0.50000  Biso   1.000  Ir
  Ir3      1.0000 0.50000  0.85433  0.25000  Biso   1.000  Ir
  Ir4      1.0000 0.50000  0.14567  0.75000  Biso   1.000  Ir
  Ir5      1.0000 0.00000  0.00000  0.00000  Biso   1.000  Ir
  Ir6      1.0000 0.00000  0.00000  0.50000  Biso   1.000  Ir
  Ir7      1.0000 0.00000  0.35433  0.25000  Biso   1.000  Ir
  Ir8      1.0000 0.00000  0.64567  0.75000  Biso   1.000  Ir
