data_image0
_cell_length_a       5.4306
_cell_length_b       5.43059
_cell_length_c       110.425
_cell_angle_alpha    90
_cell_angle_beta     90
_cell_angle_gamma    120

_symmetry_space_group_name_H-M    "P 1"
_symmetry_int_tables_number       1

loop_
  _symmetry_equiv_pos_as_xyz
  'x, y, z'

loop_
  _atom_site_label
  _atom_site_occupancy
  _atom_site_fract_x
  _atom_site_fract_y
  _atom_site_fract_z
  _atom_site_thermal_displace_type
  _atom_site_B_iso_or_equiv
  _atom_site_type_symbol
  Ir1      1.0000 0.00000  0.00000  0.21668  Biso   1.000  Ir
  Ir2      1.0000 0.00000  0.00000  0.81667  Biso   1.000  Ir
  Ir3      1.0000 0.33333  0.66667  0.48334  Biso   1.000  Ir
  Ir4      1.0000 0.00000  0.00000  0.01667  Biso   1.000  Ir
  Ir5      1.0000 0.00000  0.00000  0.35000  Biso   1.000  Ir
  Ir6      1.0000 0.00000  0.00000  0.61667  Biso   1.000  Ir
  Ir7      1.0000 0.00000  0.00000  0.88334  Biso   1.000  Ir
  Ir8      1.0000 0.33333  0.66667  0.68332  Biso   1.000  Ir
  Ir9      1.0000 0.00000  0.00000  0.55001  Biso   1.000  Ir
  Ir10     1.0000 0.00000  0.00000  0.41666  Biso   1.000  Ir
  Ir11     1.0000 0.33333  0.66667  0.08332  Biso   1.000  Ir
  Ir12     1.0000 0.33333  0.66667  0.28333  Biso   1.000  Ir
  Ir13     1.0000 0.00000  0.00000  0.15000  Biso   1.000  Ir
  Ir14     1.0000 0.33333  0.66667  0.94999  Biso   1.000  Ir
  Ir15     1.0000 0.00000  0.00000  0.74999  Biso   1.000  Ir
  O1       1.0000 0.33333  0.66667  0.73433  Biso   1.000  O
  O2       1.0000 0.66667  0.33333  0.43232  Biso   1.000  O
  O3       1.0000 0.33333  0.66667  0.20102  Biso   1.000  O
  O4       1.0000 0.00000  0.00000  0.66765  Biso   1.000  O
  O5       1.0000 0.00000  0.00000  0.26766  Biso   1.000  O
  O6       1.0000 0.66667  0.33333  0.56568  Biso   1.000  O
  O7       1.0000 0.33333  0.66667  0.86768  Biso   1.000  O
  O8       1.0000 0.66667  0.33333  0.23234  Biso   1.000  O
  O9       1.0000 0.33333  0.66667  0.53435  Biso   1.000  O
  O10      1.0000 0.66667  0.33333  0.89901  Biso   1.000  O
  O11      1.0000 0.33333  0.66667  0.60101  Biso   1.000  O
  O12      1.0000 0.66667  0.33333  0.96566  Biso   1.000  O
  O13      1.0000 0.66667  0.33333  0.69898  Biso   1.000  O
  O14      1.0000 0.33333  0.66667  0.40100  Biso   1.000  O
  O15      1.0000 0.33333  0.66667  0.80101  Biso   1.000  O
  O16      1.0000 0.66667  0.33333  0.76565  Biso   1.000  O
  O17      1.0000 0.00000  0.00000  0.06766  Biso   1.000  O
  O18      1.0000 0.00000  0.00000  0.46767  Biso   1.000  O
  O19      1.0000 0.66667  0.33333  0.09899  Biso   1.000  O
  O20      1.0000 0.66667  0.33333  0.63233  Biso   1.000  O
  O21      1.0000 0.66667  0.33333  0.29900  Biso   1.000  O
  O22      1.0000 0.33333  0.66667  0.00101  Biso   1.000  O
  O23      1.0000 0.33333  0.66667  0.13434  Biso   1.000  O
  O24      1.0000 0.66667  0.33333  0.83234  Biso   1.000  O
  O25      1.0000 0.66667  0.33333  0.36567  Biso   1.000  O
  O26      1.0000 0.66667  0.33333  0.03233  Biso   1.000  O
  O27      1.0000 0.33333  0.66667  0.33434  Biso   1.000  O
  O28      1.0000 0.66667  0.33333  0.49901  Biso   1.000  O
  O29      1.0000 0.00000  0.00000  0.93432  Biso   1.000  O
  O30      1.0000 0.66667  0.33333  0.16567  Biso   1.000  O
