data_image0
_cell_length_a       3.27692
_cell_length_b       17.1034
_cell_length_c       6.68367
_cell_angle_alpha    90
_cell_angle_beta     90
_cell_angle_gamma    90

_symmetry_space_group_name_H-M    "P 1"
_symmetry_int_tables_number       1

loop_
  _symmetry_equiv_pos_as_xyz
  'x, y, z'

loop_
  _atom_site_label
  _atom_site_occupancy
  _atom_site_fract_x
  _atom_site_fract_y
  _atom_site_fract_z
  _atom_site_thermal_displace_type
  _atom_site_B_iso_or_equiv
  _atom_site_type_symbol
  Ir1      1.0000 0.00000  0.94120  0.69845  Biso   1.000  Ir
  Ir2      1.0000 0.50000  0.55880  0.19845  Biso   1.000  Ir
  Ir3      1.0000 0.50000  0.79449  0.22938  Biso   1.000  Ir
  Ir4      1.0000 0.00000  0.70551  0.72938  Biso   1.000  Ir
  Ir5      1.0000 0.50000  0.44120  0.69845  Biso   1.000  Ir
  Ir6      1.0000 0.00000  0.05880  0.19845  Biso   1.000  Ir
  Ir7      1.0000 0.00000  0.29449  0.22938  Biso   1.000  Ir
  Ir8      1.0000 0.50000  0.20551  0.72938  Biso   1.000  Ir
  O1       1.0000 0.50000  0.96433  0.99682  Biso   1.000  O
  O2       1.0000 0.00000  0.53566  0.49682  Biso   1.000  O
  O3       1.0000 0.00000  0.91366  0.32826  Biso   1.000  O
  O4       1.0000 0.50000  0.58634  0.82826  Biso   1.000  O
  O5       1.0000 0.00000  0.82806  0.95748  Biso   1.000  O
  O6       1.0000 0.50000  0.67194  0.45748  Biso   1.000  O
  O7       1.0000 0.50000  0.82577  0.60390  Biso   1.000  O
  O8       1.0000 0.00000  0.67423  0.10390  Biso   1.000  O
  O9       1.0000 0.00000  0.46433  0.99682  Biso   1.000  O
  O10      1.0000 0.50000  0.03567  0.49682  Biso   1.000  O
  O11      1.0000 0.50000  0.41366  0.32826  Biso   1.000  O
  O12      1.0000 0.00000  0.08634  0.82826  Biso   1.000  O
  O13      1.0000 0.50000  0.32806  0.95748  Biso   1.000  O
  O14      1.0000 0.00000  0.17194  0.45748  Biso   1.000  O
  O15      1.0000 0.00000  0.32577  0.60390  Biso   1.000  O
  O16      1.0000 0.50000  0.17423  0.10390  Biso   1.000  O
