data_image0
_cell_length_a       15.2105
_cell_length_b       3.73405
_cell_length_c       10.1106
_cell_angle_alpha    90
_cell_angle_beta     90.1082
_cell_angle_gamma    90

_symmetry_space_group_name_H-M    "P 1"
_symmetry_int_tables_number       1

loop_
  _symmetry_equiv_pos_as_xyz
  'x, y, z'

loop_
  _atom_site_label
  _atom_site_occupancy
  _atom_site_fract_x
  _atom_site_fract_y
  _atom_site_fract_z
  _atom_site_thermal_displace_type
  _atom_site_B_iso_or_equiv
  _atom_site_type_symbol
  O1       1.0000 0.28172  0.50000  0.37289  Biso   1.000  O
  O2       1.0000 0.21828  0.00000  0.62711  Biso   1.000  O
  O3       1.0000 0.09251  0.50000  0.15252  Biso   1.000  O
  O4       1.0000 0.40749  0.00000  0.84748  Biso   1.000  O
  O5       1.0000 0.25507  0.00000  0.11833  Biso   1.000  O
  O6       1.0000 0.24493  0.50000  0.88167  Biso   1.000  O
  O7       1.0000 0.41464  0.50000  0.08099  Biso   1.000  O
  O8       1.0000 0.08536  0.00000  0.91901  Biso   1.000  O
  O9       1.0000 0.78172  0.00000  0.37289  Biso   1.000  O
  O10      1.0000 0.71828  0.50000  0.62711  Biso   1.000  O
  O11      1.0000 0.59251  0.00000  0.15252  Biso   1.000  O
  O12      1.0000 0.90749  0.50000  0.84748  Biso   1.000  O
  O13      1.0000 0.75507  0.50000  0.11833  Biso   1.000  O
  O14      1.0000 0.74493  0.00000  0.88167  Biso   1.000  O
  O15      1.0000 0.91464  0.00000  0.08099  Biso   1.000  O
  O16      1.0000 0.58536  0.50000  0.91901  Biso   1.000  O
  Ir1      1.0000 0.13442  0.00000  0.36757  Biso   1.000  Ir
  Ir2      1.0000 0.36558  0.50000  0.63243  Biso   1.000  Ir
  Ir3      1.0000 0.42188  0.00000  0.30610  Biso   1.000  Ir
  Ir4      1.0000 0.07812  0.50000  0.69390  Biso   1.000  Ir
  Ir5      1.0000 0.63442  0.50000  0.36757  Biso   1.000  Ir
  Ir6      1.0000 0.86558  0.00000  0.63243  Biso   1.000  Ir
  Ir7      1.0000 0.92188  0.50000  0.30610  Biso   1.000  Ir
  Ir8      1.0000 0.57812  0.00000  0.69390  Biso   1.000  Ir
