data_image0
_cell_length_a       21.3865
_cell_length_b       21.5661
_cell_length_c       21.443
_cell_angle_alpha    90
_cell_angle_beta     90
_cell_angle_gamma    90

_symmetry_space_group_name_H-M    "P 1"
_symmetry_int_tables_number       1

loop_
  _symmetry_equiv_pos_as_xyz
  'x, y, z'

loop_
  _atom_site_label
  _atom_site_occupancy
  _atom_site_fract_x
  _atom_site_fract_y
  _atom_site_fract_z
  _atom_site_thermal_displace_type
  _atom_site_B_iso_or_equiv
  _atom_site_type_symbol
  O1       1.0000 0.65279  0.92435  0.18391  Biso   1.000  O
  O2       1.0000 0.34721  0.07565  0.18391  Biso   1.000  O
  O3       1.0000 0.65279  0.07565  0.18391  Biso   1.000  O
  O4       1.0000 0.34721  0.92435  0.18391  Biso   1.000  O
  O5       1.0000 0.15184  0.07569  0.32218  Biso   1.000  O
  O6       1.0000 0.34815  0.42431  0.82218  Biso   1.000  O
  O7       1.0000 0.15184  0.92431  0.32218  Biso   1.000  O
  O8       1.0000 0.34815  0.57569  0.82218  Biso   1.000  O
  O9       1.0000 0.07629  0.34864  0.57019  Biso   1.000  O
  O10      1.0000 0.42371  0.15136  0.07019  Biso   1.000  O
  O11      1.0000 0.57629  0.15136  0.07019  Biso   1.000  O
  O12      1.0000 0.92371  0.34864  0.57019  Biso   1.000  O
  O13      1.0000 0.21166  0.50000  0.80739  Biso   1.000  O
  O14      1.0000 0.28834  0.00000  0.30739  Biso   1.000  O
  O15      1.0000 0.50000  0.91782  0.17541  Biso   1.000  O
  O16      1.0000 0.50000  0.08218  0.17541  Biso   1.000  O
  O17      1.0000 0.79002  0.00000  0.19781  Biso   1.000  O
  O18      1.0000 0.20998  0.00000  0.19781  Biso   1.000  O
  O19      1.0000 0.50000  0.21322  0.94829  Biso   1.000  O
  O20      1.0000 0.00000  0.28678  0.44829  Biso   1.000  O
  O21      1.0000 0.57630  0.34917  0.93772  Biso   1.000  O
  O22      1.0000 0.92370  0.15083  0.43772  Biso   1.000  O
  O23      1.0000 0.07630  0.15083  0.43772  Biso   1.000  O
  O24      1.0000 0.42370  0.34917  0.93772  Biso   1.000  O
  O25      1.0000 0.58282  0.00000  0.07888  Biso   1.000  O
  O26      1.0000 0.41718  0.00000  0.07888  Biso   1.000  O
  O27      1.0000 0.00000  0.08245  0.33186  Biso   1.000  O
  O28      1.0000 0.50000  0.41755  0.83186  Biso   1.000  O
  O29      1.0000 0.50000  0.28766  0.06015  Biso   1.000  O
  O30      1.0000 0.00000  0.21233  0.56015  Biso   1.000  O
  O31      1.0000 0.41701  0.50000  0.92816  Biso   1.000  O
  O32      1.0000 0.08299  0.00000  0.42816  Biso   1.000  O
  O33      1.0000 0.15279  0.42435  0.68391  Biso   1.000  O
  O34      1.0000 0.84721  0.57565  0.68391  Biso   1.000  O
  O35      1.0000 0.15279  0.57565  0.68391  Biso   1.000  O
  O36      1.0000 0.84721  0.42435  0.68391  Biso   1.000  O
  O37      1.0000 0.65184  0.57569  0.82218  Biso   1.000  O
  O38      1.0000 0.84815  0.92431  0.32218  Biso   1.000  O
  O39      1.0000 0.65184  0.42431  0.82218  Biso   1.000  O
  O40      1.0000 0.84815  0.07569  0.32218  Biso   1.000  O
  O41      1.0000 0.57629  0.84864  0.07019  Biso   1.000  O
  O42      1.0000 0.92371  0.65136  0.57019  Biso   1.000  O
  O43      1.0000 0.07629  0.65136  0.57019  Biso   1.000  O
  O44      1.0000 0.42371  0.84864  0.07019  Biso   1.000  O
  O45      1.0000 0.71166  0.00000  0.30739  Biso   1.000  O
  O46      1.0000 0.78834  0.50000  0.80739  Biso   1.000  O
  O47      1.0000 0.00000  0.41782  0.67541  Biso   1.000  O
  O48      1.0000 0.00000  0.58218  0.67541  Biso   1.000  O
  O49      1.0000 0.29002  0.50000  0.69781  Biso   1.000  O
  O50      1.0000 0.70998  0.50000  0.69781  Biso   1.000  O
  O51      1.0000 0.00000  0.71322  0.44829  Biso   1.000  O
  O52      1.0000 0.50000  0.78678  0.94829  Biso   1.000  O
  O53      1.0000 0.07630  0.84917  0.43772  Biso   1.000  O
  O54      1.0000 0.42370  0.65083  0.93772  Biso   1.000  O
  O55      1.0000 0.57630  0.65083  0.93772  Biso   1.000  O
  O56      1.0000 0.92370  0.84917  0.43772  Biso   1.000  O
  O57      1.0000 0.08282  0.50000  0.57888  Biso   1.000  O
  O58      1.0000 0.91718  0.50000  0.57888  Biso   1.000  O
  O59      1.0000 0.50000  0.58245  0.83186  Biso   1.000  O
  O60      1.0000 0.00000  0.91755  0.33186  Biso   1.000  O
  O61      1.0000 0.00000  0.78766  0.56015  Biso   1.000  O
  O62      1.0000 0.50000  0.71234  0.06015  Biso   1.000  O
  O63      1.0000 0.91701  0.00000  0.42816  Biso   1.000  O
  O64      1.0000 0.58299  0.50000  0.92816  Biso   1.000  O
  Ir1      1.0000 0.50000  0.30522  0.96741  Biso   1.000  Ir
  Ir2      1.0000 0.00000  0.19478  0.46741  Biso   1.000  Ir
  Ir3      1.0000 0.42012  0.92083  0.12714  Biso   1.000  Ir
  Ir4      1.0000 0.57988  0.07917  0.12714  Biso   1.000  Ir
  Ir5      1.0000 0.42012  0.07917  0.12714  Biso   1.000  Ir
  Ir6      1.0000 0.57988  0.92083  0.12714  Biso   1.000  Ir
  Ir7      1.0000 0.07981  0.07920  0.38003  Biso   1.000  Ir
  Ir8      1.0000 0.42019  0.42080  0.88003  Biso   1.000  Ir
  Ir9      1.0000 0.07981  0.92080  0.38003  Biso   1.000  Ir
  Ir10     1.0000 0.42019  0.57920  0.88003  Biso   1.000  Ir
  Ir11     1.0000 0.19512  0.00000  0.29108  Biso   1.000  Ir
  Ir12     1.0000 0.30488  0.50000  0.79108  Biso   1.000  Ir
  Ir13     1.0000 0.30331  0.00000  0.21428  Biso   1.000  Ir
  Ir14     1.0000 0.69669  0.00000  0.21428  Biso   1.000  Ir
  Ir15     1.0000 0.00000  0.30441  0.54094  Biso   1.000  Ir
  Ir16     1.0000 0.50000  0.19559  0.04094  Biso   1.000  Ir
  Ir17     1.0000 0.00000  0.80522  0.46741  Biso   1.000  Ir
  Ir18     1.0000 0.50000  0.69478  0.96741  Biso   1.000  Ir
  Ir19     1.0000 0.92012  0.42083  0.62714  Biso   1.000  Ir
  Ir20     1.0000 0.07988  0.57917  0.62714  Biso   1.000  Ir
  Ir21     1.0000 0.92012  0.57917  0.62714  Biso   1.000  Ir
  Ir22     1.0000 0.07988  0.42083  0.62714  Biso   1.000  Ir
  Ir23     1.0000 0.57981  0.57920  0.88003  Biso   1.000  Ir
  Ir24     1.0000 0.92019  0.92080  0.38003  Biso   1.000  Ir
  Ir25     1.0000 0.57981  0.42080  0.88003  Biso   1.000  Ir
  Ir26     1.0000 0.92019  0.07920  0.38003  Biso   1.000  Ir
  Ir27     1.0000 0.69512  0.50000  0.79108  Biso   1.000  Ir
  Ir28     1.0000 0.80488  0.00000  0.29108  Biso   1.000  Ir
  Ir29     1.0000 0.80331  0.50000  0.71428  Biso   1.000  Ir
  Ir30     1.0000 0.19669  0.50000  0.71428  Biso   1.000  Ir
  Ir31     1.0000 0.50000  0.80441  0.04094  Biso   1.000  Ir
  Ir32     1.0000 0.00000  0.69559  0.54094  Biso   1.000  Ir
