data_image0
_cell_length_a       6.48975
_cell_length_b       10.0614
_cell_length_c       6.02333
_cell_angle_alpha    90
_cell_angle_beta     90
_cell_angle_gamma    90

_symmetry_space_group_name_H-M    "P 1"
_symmetry_int_tables_number       1

loop_
  _symmetry_equiv_pos_as_xyz
  'x, y, z'

loop_
  _atom_site_label
  _atom_site_occupancy
  _atom_site_fract_x
  _atom_site_fract_y
  _atom_site_fract_z
  _atom_site_thermal_displace_type
  _atom_site_B_iso_or_equiv
  _atom_site_type_symbol
  O1       1.0000 0.50000  0.00000  0.11467  Biso   1.000  O
  O2       1.0000 0.71698  0.00000  0.75225  Biso   1.000  O
  O3       1.0000 0.28302  0.00000  0.75225  Biso   1.000  O
  O4       1.0000 0.00000  0.00000  0.07271  Biso   1.000  O
  O5       1.0000 0.78211  0.12955  0.35881  Biso   1.000  O
  O6       1.0000 0.71789  0.37045  0.85881  Biso   1.000  O
  O7       1.0000 0.28211  0.37045  0.85881  Biso   1.000  O
  O8       1.0000 0.21789  0.12955  0.35881  Biso   1.000  O
  O9       1.0000 0.00000  0.20112  0.71907  Biso   1.000  O
  O10      1.0000 0.50000  0.29888  0.21907  Biso   1.000  O
  O11      1.0000 0.50000  0.20804  0.64614  Biso   1.000  O
  O12      1.0000 0.00000  0.29196  0.14614  Biso   1.000  O
  O13      1.0000 0.00000  0.50000  0.61467  Biso   1.000  O
  O14      1.0000 0.21698  0.50000  0.25225  Biso   1.000  O
  O15      1.0000 0.78302  0.50000  0.25225  Biso   1.000  O
  O16      1.0000 0.50000  0.50000  0.57271  Biso   1.000  O
  O17      1.0000 0.28211  0.62955  0.85881  Biso   1.000  O
  O18      1.0000 0.21789  0.87045  0.35881  Biso   1.000  O
  O19      1.0000 0.78211  0.87045  0.35881  Biso   1.000  O
  O20      1.0000 0.71789  0.62955  0.85881  Biso   1.000  O
  O21      1.0000 0.50000  0.70112  0.21907  Biso   1.000  O
  O22      1.0000 0.00000  0.79888  0.71907  Biso   1.000  O
  O23      1.0000 0.00000  0.70804  0.14614  Biso   1.000  O
  O24      1.0000 0.50000  0.79196  0.64614  Biso   1.000  O
  Ir1      1.0000 0.50000  0.00000  0.46792  Biso   1.000  Ir
  Ir2      1.0000 0.00000  0.00000  0.54796  Biso   1.000  Ir
  Ir3      1.0000 0.73083  0.16563  0.99014  Biso   1.000  Ir
  Ir4      1.0000 0.76917  0.33437  0.49014  Biso   1.000  Ir
  Ir5      1.0000 0.23083  0.33437  0.49014  Biso   1.000  Ir
  Ir6      1.0000 0.26917  0.16563  0.99014  Biso   1.000  Ir
  Ir7      1.0000 0.00000  0.50000  0.96792  Biso   1.000  Ir
  Ir8      1.0000 0.50000  0.50000  0.04796  Biso   1.000  Ir
  Ir9      1.0000 0.23083  0.66563  0.49014  Biso   1.000  Ir
  Ir10     1.0000 0.26917  0.83437  0.99014  Biso   1.000  Ir
  Ir11     1.0000 0.73083  0.83437  0.99014  Biso   1.000  Ir
  Ir12     1.0000 0.76917  0.66563  0.49014  Biso   1.000  Ir
