data_image0
_cell_length_a       7.3416
_cell_length_b       12.126
_cell_length_c       20.8387
_cell_angle_alpha    90
_cell_angle_beta     90
_cell_angle_gamma    90

_symmetry_space_group_name_H-M    "P 1"
_symmetry_int_tables_number       1

loop_
  _symmetry_equiv_pos_as_xyz
  'x, y, z'

loop_
  _atom_site_label
  _atom_site_occupancy
  _atom_site_fract_x
  _atom_site_fract_y
  _atom_site_fract_z
  _atom_site_thermal_displace_type
  _atom_site_B_iso_or_equiv
  _atom_site_type_symbol
  O1       1.0000 0.30216  0.13619  0.22756  Biso   1.000  O
  O2       1.0000 0.69783  0.86381  0.22756  Biso   1.000  O
  O3       1.0000 0.19783  0.63619  0.27244  Biso   1.000  O
  O4       1.0000 0.80216  0.36381  0.27244  Biso   1.000  O
  O5       1.0000 0.69783  0.86381  0.77244  Biso   1.000  O
  O6       1.0000 0.30216  0.13619  0.77244  Biso   1.000  O
  O7       1.0000 0.80216  0.36381  0.72756  Biso   1.000  O
  O8       1.0000 0.19783  0.63619  0.72756  Biso   1.000  O
  O9       1.0000 0.26821  0.27333  0.40535  Biso   1.000  O
  O10      1.0000 0.73179  0.72667  0.40535  Biso   1.000  O
  O11      1.0000 0.23179  0.77333  0.09465  Biso   1.000  O
  O12      1.0000 0.76821  0.22667  0.09465  Biso   1.000  O
  O13      1.0000 0.73179  0.72667  0.59465  Biso   1.000  O
  O14      1.0000 0.26821  0.27333  0.59465  Biso   1.000  O
  O15      1.0000 0.76821  0.22667  0.90535  Biso   1.000  O
  O16      1.0000 0.23179  0.77333  0.90535  Biso   1.000  O
  O17      1.0000 0.00000  0.00000  0.20191  Biso   1.000  O
  O18      1.0000 0.50000  0.50000  0.29809  Biso   1.000  O
  O19      1.0000 0.00000  0.00000  0.79809  Biso   1.000  O
  O20      1.0000 0.50000  0.50000  0.70191  Biso   1.000  O
  O21      1.0000 0.00000  0.00000  0.00000  Biso   1.000  O
  O22      1.0000 0.50000  0.50000  0.50000  Biso   1.000  O
  O23      1.0000 0.00000  0.50000  0.00000  Biso   1.000  O
  O24      1.0000 0.50000  0.00000  0.50000  Biso   1.000  O
  Ir1      1.0000 0.31605  0.38730  0.30047  Biso   1.000  Ir
  Ir2      1.0000 0.68395  0.61270  0.30047  Biso   1.000  Ir
  Ir3      1.0000 0.18395  0.88730  0.19953  Biso   1.000  Ir
  Ir4      1.0000 0.81605  0.11270  0.19953  Biso   1.000  Ir
  Ir5      1.0000 0.68395  0.61270  0.69952  Biso   1.000  Ir
  Ir6      1.0000 0.31605  0.38730  0.69952  Biso   1.000  Ir
  Ir7      1.0000 0.81605  0.11270  0.80048  Biso   1.000  Ir
  Ir8      1.0000 0.18395  0.88730  0.80048  Biso   1.000  Ir
  Ir9      1.0000 0.87868  0.24644  0.00000  Biso   1.000  Ir
  Ir10     1.0000 0.12132  0.75356  0.00000  Biso   1.000  Ir
  Ir11     1.0000 0.62132  0.74644  0.50000  Biso   1.000  Ir
  Ir12     1.0000 0.37868  0.25356  0.50000  Biso   1.000  Ir
