data_image0
_cell_length_a       8.80595
_cell_length_b       13.8627
_cell_length_c       11.5903
_cell_angle_alpha    90
_cell_angle_beta     90
_cell_angle_gamma    90

_symmetry_space_group_name_H-M    "P 1"
_symmetry_int_tables_number       1

loop_
  _symmetry_equiv_pos_as_xyz
  'x, y, z'

loop_
  _atom_site_label
  _atom_site_occupancy
  _atom_site_fract_x
  _atom_site_fract_y
  _atom_site_fract_z
  _atom_site_thermal_displace_type
  _atom_site_B_iso_or_equiv
  _atom_site_type_symbol
  O1       1.0000 0.50000  0.92912  0.75000  Biso   1.000  O
  O2       1.0000 0.50000  0.07088  0.25000  Biso   1.000  O
  O3       1.0000 0.30852  0.70317  0.32742  Biso   1.000  O
  O4       1.0000 0.69148  0.29683  0.82742  Biso   1.000  O
  O5       1.0000 0.69148  0.70317  0.17258  Biso   1.000  O
  O6       1.0000 0.30852  0.29683  0.67258  Biso   1.000  O
  O7       1.0000 0.58430  0.86874  0.41865  Biso   1.000  O
  O8       1.0000 0.41570  0.13126  0.91865  Biso   1.000  O
  O9       1.0000 0.41570  0.86874  0.08135  Biso   1.000  O
  O10      1.0000 0.58430  0.13126  0.58135  Biso   1.000  O
  O11      1.0000 0.22017  0.12260  0.45954  Biso   1.000  O
  O12      1.0000 0.77983  0.87740  0.95954  Biso   1.000  O
  O13      1.0000 0.77983  0.12260  0.04046  Biso   1.000  O
  O14      1.0000 0.22017  0.87740  0.54046  Biso   1.000  O
  O15      1.0000 0.09526  0.00000  0.00000  Biso   1.000  O
  O16      1.0000 0.90474  0.00000  0.50000  Biso   1.000  O
  O17      1.0000 0.00000  0.42912  0.75000  Biso   1.000  O
  O18      1.0000 0.00000  0.57088  0.25000  Biso   1.000  O
  O19      1.0000 0.80852  0.20317  0.32742  Biso   1.000  O
  O20      1.0000 0.19148  0.79683  0.82742  Biso   1.000  O
  O21      1.0000 0.19148  0.20317  0.17258  Biso   1.000  O
  O22      1.0000 0.80852  0.79683  0.67258  Biso   1.000  O
  O23      1.0000 0.08430  0.36874  0.41865  Biso   1.000  O
  O24      1.0000 0.91570  0.63126  0.91865  Biso   1.000  O
  O25      1.0000 0.91570  0.36874  0.08135  Biso   1.000  O
  O26      1.0000 0.08430  0.63126  0.58135  Biso   1.000  O
  O27      1.0000 0.72017  0.62260  0.45954  Biso   1.000  O
  O28      1.0000 0.27983  0.37740  0.95954  Biso   1.000  O
  O29      1.0000 0.27983  0.62260  0.04046  Biso   1.000  O
  O30      1.0000 0.72017  0.37740  0.54046  Biso   1.000  O
  O31      1.0000 0.59526  0.50000  0.00000  Biso   1.000  O
  O32      1.0000 0.40474  0.50000  0.50000  Biso   1.000  O
  Ir1      1.0000 0.18123  0.95374  0.27629  Biso   1.000  Ir
  Ir2      1.0000 0.81877  0.04626  0.77629  Biso   1.000  Ir
  Ir3      1.0000 0.81877  0.95374  0.22371  Biso   1.000  Ir
  Ir4      1.0000 0.18123  0.04626  0.72371  Biso   1.000  Ir
  Ir5      1.0000 0.45107  0.28292  0.38525  Biso   1.000  Ir
  Ir6      1.0000 0.54893  0.71708  0.88525  Biso   1.000  Ir
  Ir7      1.0000 0.54893  0.28292  0.11475  Biso   1.000  Ir
  Ir8      1.0000 0.45107  0.71708  0.61475  Biso   1.000  Ir
  Ir9      1.0000 0.68123  0.45374  0.27629  Biso   1.000  Ir
  Ir10     1.0000 0.31877  0.54626  0.77629  Biso   1.000  Ir
  Ir11     1.0000 0.31877  0.45374  0.22371  Biso   1.000  Ir
  Ir12     1.0000 0.68123  0.54626  0.72371  Biso   1.000  Ir
  Ir13     1.0000 0.95107  0.78292  0.38525  Biso   1.000  Ir
  Ir14     1.0000 0.04893  0.21708  0.88525  Biso   1.000  Ir
  Ir15     1.0000 0.04893  0.78292  0.11475  Biso   1.000  Ir
  Ir16     1.0000 0.95107  0.21708  0.61475  Biso   1.000  Ir
