data_image0
_cell_length_a       17.1221
_cell_length_b       17.1221
_cell_length_c       10.9687
_cell_angle_alpha    90
_cell_angle_beta     90
_cell_angle_gamma    90

_symmetry_space_group_name_H-M    "P 1"
_symmetry_int_tables_number       1

loop_
  _symmetry_equiv_pos_as_xyz
  'x, y, z'

loop_
  _atom_site_label
  _atom_site_occupancy
  _atom_site_fract_x
  _atom_site_fract_y
  _atom_site_fract_z
  _atom_site_thermal_displace_type
  _atom_site_B_iso_or_equiv
  _atom_site_type_symbol
  O1       1.0000 0.16997  0.33003  0.29746  Biso   1.000  O
  O2       1.0000 0.83003  0.66997  0.29746  Biso   1.000  O
  O3       1.0000 0.83003  0.33003  0.79745  Biso   1.000  O
  O4       1.0000 0.16997  0.66997  0.79745  Biso   1.000  O
  O5       1.0000 0.83003  0.33003  0.20254  Biso   1.000  O
  O6       1.0000 0.16997  0.66997  0.20254  Biso   1.000  O
  O7       1.0000 0.16997  0.33003  0.70254  Biso   1.000  O
  O8       1.0000 0.83003  0.66997  0.70254  Biso   1.000  O
  O9       1.0000 0.64571  0.35429  0.25000  Biso   1.000  O
  O10      1.0000 0.85429  0.14571  0.75000  Biso   1.000  O
  O11      1.0000 0.35429  0.35429  0.25000  Biso   1.000  O
  O12      1.0000 0.14571  0.14571  0.75000  Biso   1.000  O
  O13      1.0000 0.85429  0.14571  0.25000  Biso   1.000  O
  O14      1.0000 0.64571  0.35429  0.75000  Biso   1.000  O
  O15      1.0000 0.14571  0.14571  0.25000  Biso   1.000  O
  O16      1.0000 0.35429  0.35429  0.75000  Biso   1.000  O
  O17      1.0000 0.76389  0.50000  0.25000  Biso   1.000  O
  O18      1.0000 0.23611  0.50000  0.25000  Biso   1.000  O
  O19      1.0000 0.00000  0.73611  0.75000  Biso   1.000  O
  O20      1.0000 0.00000  0.26389  0.75000  Biso   1.000  O
  O21      1.0000 0.23611  0.50000  0.75000  Biso   1.000  O
  O22      1.0000 0.76389  0.50000  0.75000  Biso   1.000  O
  O23      1.0000 0.00000  0.26389  0.25000  Biso   1.000  O
  O24      1.0000 0.00000  0.73611  0.25000  Biso   1.000  O
  O25      1.0000 0.91333  0.77875  0.50000  Biso   1.000  O
  O26      1.0000 0.08667  0.22125  0.50000  Biso   1.000  O
  O27      1.0000 0.27875  0.58667  0.00000  Biso   1.000  O
  O28      1.0000 0.72125  0.41333  0.00000  Biso   1.000  O
  O29      1.0000 0.08667  0.77875  0.00000  Biso   1.000  O
  O30      1.0000 0.91333  0.22125  0.00000  Biso   1.000  O
  O31      1.0000 0.72125  0.58667  0.50000  Biso   1.000  O
  O32      1.0000 0.27875  0.41333  0.50000  Biso   1.000  O
  O33      1.0000 0.66997  0.83003  0.79745  Biso   1.000  O
  O34      1.0000 0.33003  0.16997  0.79745  Biso   1.000  O
  O35      1.0000 0.33003  0.83003  0.29746  Biso   1.000  O
  O36      1.0000 0.66997  0.16997  0.29746  Biso   1.000  O
  O37      1.0000 0.33003  0.83003  0.70254  Biso   1.000  O
  O38      1.0000 0.66997  0.16997  0.70254  Biso   1.000  O
  O39      1.0000 0.66997  0.83003  0.20254  Biso   1.000  O
  O40      1.0000 0.33003  0.16997  0.20254  Biso   1.000  O
  O41      1.0000 0.14571  0.85429  0.75000  Biso   1.000  O
  O42      1.0000 0.35429  0.64571  0.25000  Biso   1.000  O
  O43      1.0000 0.85429  0.85429  0.75000  Biso   1.000  O
  O44      1.0000 0.64571  0.64571  0.25000  Biso   1.000  O
  O45      1.0000 0.35429  0.64571  0.75000  Biso   1.000  O
  O46      1.0000 0.14571  0.85429  0.25000  Biso   1.000  O
  O47      1.0000 0.64571  0.64571  0.75000  Biso   1.000  O
  O48      1.0000 0.85429  0.85429  0.25000  Biso   1.000  O
  O49      1.0000 0.26389  0.00000  0.75000  Biso   1.000  O
  O50      1.0000 0.73611  0.00000  0.75000  Biso   1.000  O
  O51      1.0000 0.50000  0.23611  0.25000  Biso   1.000  O
  O52      1.0000 0.50000  0.76389  0.25000  Biso   1.000  O
  O53      1.0000 0.73611  0.00000  0.25000  Biso   1.000  O
  O54      1.0000 0.26389  0.00000  0.25000  Biso   1.000  O
  O55      1.0000 0.50000  0.76389  0.75000  Biso   1.000  O
  O56      1.0000 0.50000  0.23611  0.75000  Biso   1.000  O
  O57      1.0000 0.41333  0.27875  0.00000  Biso   1.000  O
  O58      1.0000 0.58667  0.72125  0.00000  Biso   1.000  O
  O59      1.0000 0.77875  0.08667  0.50000  Biso   1.000  O
  O60      1.0000 0.22125  0.91333  0.50000  Biso   1.000  O
  O61      1.0000 0.58667  0.27875  0.50000  Biso   1.000  O
  O62      1.0000 0.41333  0.72125  0.50000  Biso   1.000  O
  O63      1.0000 0.22125  0.08667  0.00000  Biso   1.000  O
  O64      1.0000 0.77875  0.91333  0.00000  Biso   1.000  O
  Ir1      1.0000 0.10089  0.75990  0.82502  Biso   1.000  Ir
  Ir2      1.0000 0.89911  0.24010  0.82502  Biso   1.000  Ir
  Ir3      1.0000 0.25990  0.39911  0.32502  Biso   1.000  Ir
  Ir4      1.0000 0.74010  0.60089  0.32502  Biso   1.000  Ir
  Ir5      1.0000 0.89911  0.75990  0.67498  Biso   1.000  Ir
  Ir6      1.0000 0.10089  0.24010  0.67498  Biso   1.000  Ir
  Ir7      1.0000 0.74010  0.39911  0.17498  Biso   1.000  Ir
  Ir8      1.0000 0.25990  0.60089  0.17498  Biso   1.000  Ir
  Ir9      1.0000 0.89911  0.24010  0.17498  Biso   1.000  Ir
  Ir10     1.0000 0.10089  0.75990  0.17498  Biso   1.000  Ir
  Ir11     1.0000 0.74010  0.60089  0.67498  Biso   1.000  Ir
  Ir12     1.0000 0.25990  0.39911  0.67498  Biso   1.000  Ir
  Ir13     1.0000 0.10089  0.24010  0.32502  Biso   1.000  Ir
  Ir14     1.0000 0.89911  0.75990  0.32502  Biso   1.000  Ir
  Ir15     1.0000 0.25990  0.60089  0.82502  Biso   1.000  Ir
  Ir16     1.0000 0.74010  0.39911  0.82502  Biso   1.000  Ir
  Ir17     1.0000 0.60089  0.25990  0.32502  Biso   1.000  Ir
  Ir18     1.0000 0.39911  0.74010  0.32502  Biso   1.000  Ir
  Ir19     1.0000 0.75990  0.89911  0.82502  Biso   1.000  Ir
  Ir20     1.0000 0.24010  0.10089  0.82502  Biso   1.000  Ir
  Ir21     1.0000 0.39911  0.25990  0.17498  Biso   1.000  Ir
  Ir22     1.0000 0.60089  0.74010  0.17498  Biso   1.000  Ir
  Ir23     1.0000 0.24010  0.89911  0.67498  Biso   1.000  Ir
  Ir24     1.0000 0.75990  0.10089  0.67498  Biso   1.000  Ir
  Ir25     1.0000 0.39911  0.74010  0.67498  Biso   1.000  Ir
  Ir26     1.0000 0.60089  0.25990  0.67498  Biso   1.000  Ir
  Ir27     1.0000 0.24010  0.10089  0.17498  Biso   1.000  Ir
  Ir28     1.0000 0.75990  0.89911  0.17498  Biso   1.000  Ir
  Ir29     1.0000 0.60089  0.74010  0.82502  Biso   1.000  Ir
  Ir30     1.0000 0.39911  0.25990  0.82502  Biso   1.000  Ir
  Ir31     1.0000 0.75990  0.10089  0.32502  Biso   1.000  Ir
  Ir32     1.0000 0.24010  0.89911  0.32502  Biso   1.000  Ir
