data_image0
_cell_length_a       9.70718
_cell_length_b       9.70718
_cell_length_c       6.03722
_cell_angle_alpha    90
_cell_angle_beta     90
_cell_angle_gamma    90

_symmetry_space_group_name_H-M    "P 1"
_symmetry_int_tables_number       1

loop_
  _symmetry_equiv_pos_as_xyz
  'x, y, z'

loop_
  _atom_site_label
  _atom_site_occupancy
  _atom_site_fract_x
  _atom_site_fract_y
  _atom_site_fract_z
  _atom_site_thermal_displace_type
  _atom_site_B_iso_or_equiv
  _atom_site_type_symbol
  Ir1      1.0000 0.01273  0.74341  0.02746  Biso   1.000  Ir
  Ir2      1.0000 0.98727  0.25659  0.02746  Biso   1.000  Ir
  Ir3      1.0000 0.25659  0.51273  0.27746  Biso   1.000  Ir
  Ir4      1.0000 0.74341  0.48727  0.27746  Biso   1.000  Ir
  Ir5      1.0000 0.75500  0.51263  0.72689  Biso   1.000  Ir
  Ir6      1.0000 0.24500  0.48737  0.72689  Biso   1.000  Ir
  Ir7      1.0000 0.98737  0.75500  0.47689  Biso   1.000  Ir
  Ir8      1.0000 0.01263  0.24500  0.47689  Biso   1.000  Ir
  Ir9      1.0000 0.51273  0.24341  0.52746  Biso   1.000  Ir
  Ir10     1.0000 0.48727  0.75659  0.52746  Biso   1.000  Ir
  Ir11     1.0000 0.75659  0.01273  0.77746  Biso   1.000  Ir
  Ir12     1.0000 0.24341  0.98727  0.77746  Biso   1.000  Ir
  Ir13     1.0000 0.25500  0.01263  0.22689  Biso   1.000  Ir
  Ir14     1.0000 0.74500  0.98737  0.22689  Biso   1.000  Ir
  Ir15     1.0000 0.48737  0.25500  0.97689  Biso   1.000  Ir
  Ir16     1.0000 0.51263  0.74500  0.97689  Biso   1.000  Ir
  O1       1.0000 0.86559  0.39249  0.52042  Biso   1.000  O
  O2       1.0000 0.13441  0.60751  0.52042  Biso   1.000  O
  O3       1.0000 0.10751  0.86559  0.27042  Biso   1.000  O
  O4       1.0000 0.89249  0.13441  0.27042  Biso   1.000  O
  O5       1.0000 0.84667  0.39701  0.99090  Biso   1.000  O
  O6       1.0000 0.15333  0.60299  0.99090  Biso   1.000  O
  O7       1.0000 0.10299  0.84667  0.74090  Biso   1.000  O
  O8       1.0000 0.89701  0.15333  0.74090  Biso   1.000  O
  O9       1.0000 0.89216  0.63331  0.23455  Biso   1.000  O
  O10      1.0000 0.10784  0.36669  0.23455  Biso   1.000  O
  O11      1.0000 0.36669  0.39216  0.48455  Biso   1.000  O
  O12      1.0000 0.63331  0.60784  0.48455  Biso   1.000  O
  O13      1.0000 0.89676  0.65218  0.76368  Biso   1.000  O
  O14      1.0000 0.10324  0.34782  0.76368  Biso   1.000  O
  O15      1.0000 0.34782  0.39676  0.01368  Biso   1.000  O
  O16      1.0000 0.65218  0.60324  0.01368  Biso   1.000  O
  O17      1.0000 0.36559  0.89249  0.02042  Biso   1.000  O
  O18      1.0000 0.63441  0.10751  0.02042  Biso   1.000  O
  O19      1.0000 0.60751  0.36559  0.77042  Biso   1.000  O
  O20      1.0000 0.39249  0.63441  0.77042  Biso   1.000  O
  O21      1.0000 0.34668  0.89701  0.49090  Biso   1.000  O
  O22      1.0000 0.65333  0.10299  0.49090  Biso   1.000  O
  O23      1.0000 0.60299  0.34668  0.24090  Biso   1.000  O
  O24      1.0000 0.39701  0.65333  0.24090  Biso   1.000  O
  O25      1.0000 0.39216  0.13331  0.73455  Biso   1.000  O
  O26      1.0000 0.60784  0.86669  0.73455  Biso   1.000  O
  O27      1.0000 0.86669  0.89216  0.98455  Biso   1.000  O
  O28      1.0000 0.13331  0.10784  0.98455  Biso   1.000  O
  O29      1.0000 0.39676  0.15218  0.26368  Biso   1.000  O
  O30      1.0000 0.60324  0.84782  0.26368  Biso   1.000  O
  O31      1.0000 0.84782  0.89676  0.51368  Biso   1.000  O
  O32      1.0000 0.15218  0.10324  0.51368  Biso   1.000  O
