data_image0
_cell_length_a       6.44948
_cell_length_b       6.90493
_cell_length_c       8.67422
_cell_angle_alpha    90
_cell_angle_beta     90
_cell_angle_gamma    90

_symmetry_space_group_name_H-M    "P 1"
_symmetry_int_tables_number       1

loop_
  _symmetry_equiv_pos_as_xyz
  'x, y, z'

loop_
  _atom_site_label
  _atom_site_occupancy
  _atom_site_fract_x
  _atom_site_fract_y
  _atom_site_fract_z
  _atom_site_thermal_displace_type
  _atom_site_B_iso_or_equiv
  _atom_site_type_symbol
  O1       1.0000 0.72920  0.75000  0.49823  Biso   1.000  O
  O2       1.0000 0.77080  0.25000  0.99823  Biso   1.000  O
  O3       1.0000 0.27080  0.25000  0.50177  Biso   1.000  O
  O4       1.0000 0.22920  0.75000  0.00177  Biso   1.000  O
  O5       1.0000 0.50000  0.03402  0.24171  Biso   1.000  O
  O6       1.0000 0.50000  0.46598  0.24171  Biso   1.000  O
  O7       1.0000 0.50000  0.53402  0.75829  Biso   1.000  O
  O8       1.0000 0.50000  0.96598  0.75829  Biso   1.000  O
  O9       1.0000 0.22920  0.25000  0.99823  Biso   1.000  O
  O10      1.0000 0.27080  0.75000  0.49823  Biso   1.000  O
  O11      1.0000 0.77080  0.75000  0.00177  Biso   1.000  O
  O12      1.0000 0.72920  0.25000  0.50177  Biso   1.000  O
  O13      1.0000 0.00000  0.53402  0.74171  Biso   1.000  O
  O14      1.0000 0.00000  0.96598  0.74171  Biso   1.000  O
  O15      1.0000 0.00000  0.03402  0.25829  Biso   1.000  O
  O16      1.0000 0.00000  0.46598  0.25829  Biso   1.000  O
  Ir1      1.0000 0.50000  0.50000  0.50000  Biso   1.000  Ir
  Ir2      1.0000 0.00000  0.50000  0.00000  Biso   1.000  Ir
  Ir3      1.0000 0.50000  0.25000  0.11333  Biso   1.000  Ir
  Ir4      1.0000 0.50000  0.75000  0.88667  Biso   1.000  Ir
  Ir5      1.0000 0.00000  0.00000  0.00000  Biso   1.000  Ir
  Ir6      1.0000 0.50000  0.00000  0.50000  Biso   1.000  Ir
  Ir7      1.0000 0.00000  0.75000  0.61333  Biso   1.000  Ir
  Ir8      1.0000 0.00000  0.25000  0.38667  Biso   1.000  Ir
