data_image0
_cell_length_a       3.9337
_cell_length_b       13.1031
_cell_length_c       10.9776
_cell_angle_alpha    90
_cell_angle_beta     90
_cell_angle_gamma    90

_symmetry_space_group_name_H-M    "P 1"
_symmetry_int_tables_number       1

loop_
  _symmetry_equiv_pos_as_xyz
  'x, y, z'

loop_
  _atom_site_label
  _atom_site_occupancy
  _atom_site_fract_x
  _atom_site_fract_y
  _atom_site_fract_z
  _atom_site_thermal_displace_type
  _atom_site_B_iso_or_equiv
  _atom_site_type_symbol
  O1       1.0000 0.50000  0.17839  0.01735  Biso   1.000  O
  O2       1.0000 0.00000  0.32161  0.51735  Biso   1.000  O
  O3       1.0000 0.50000  0.17839  0.48266  Biso   1.000  O
  O4       1.0000 0.00000  0.32161  0.98265  Biso   1.000  O
  O5       1.0000 0.00000  0.05865  0.10559  Biso   1.000  O
  O6       1.0000 0.50000  0.44135  0.60559  Biso   1.000  O
  O7       1.0000 0.00000  0.05865  0.39441  Biso   1.000  O
  O8       1.0000 0.50000  0.44135  0.89441  Biso   1.000  O
  O9       1.0000 0.00000  0.26625  0.25000  Biso   1.000  O
  O10      1.0000 0.50000  0.23375  0.75000  Biso   1.000  O
  O11      1.0000 0.00000  0.45954  0.25000  Biso   1.000  O
  O12      1.0000 0.50000  0.04046  0.75000  Biso   1.000  O
  O13      1.0000 0.00000  0.67839  0.01735  Biso   1.000  O
  O14      1.0000 0.50000  0.82161  0.51735  Biso   1.000  O
  O15      1.0000 0.00000  0.67839  0.48266  Biso   1.000  O
  O16      1.0000 0.50000  0.82161  0.98265  Biso   1.000  O
  O17      1.0000 0.50000  0.55865  0.10559  Biso   1.000  O
  O18      1.0000 0.00000  0.94135  0.60559  Biso   1.000  O
  O19      1.0000 0.50000  0.55865  0.39441  Biso   1.000  O
  O20      1.0000 0.00000  0.94135  0.89441  Biso   1.000  O
  O21      1.0000 0.50000  0.76625  0.25000  Biso   1.000  O
  O22      1.0000 0.00000  0.73375  0.75000  Biso   1.000  O
  O23      1.0000 0.50000  0.95954  0.25000  Biso   1.000  O
  O24      1.0000 0.00000  0.54046  0.75000  Biso   1.000  O
  Ir1      1.0000 0.50000  0.35973  0.12295  Biso   1.000  Ir
  Ir2      1.0000 0.00000  0.14027  0.62295  Biso   1.000  Ir
  Ir3      1.0000 0.50000  0.35973  0.37705  Biso   1.000  Ir
  Ir4      1.0000 0.00000  0.14027  0.87705  Biso   1.000  Ir
  Ir5      1.0000 0.50000  0.14896  0.25000  Biso   1.000  Ir
  Ir6      1.0000 0.00000  0.35104  0.75000  Biso   1.000  Ir
  Ir7      1.0000 0.00000  0.85973  0.12295  Biso   1.000  Ir
  Ir8      1.0000 0.50000  0.64027  0.62295  Biso   1.000  Ir
  Ir9      1.0000 0.00000  0.85973  0.37705  Biso   1.000  Ir
  Ir10     1.0000 0.50000  0.64027  0.87705  Biso   1.000  Ir
  Ir11     1.0000 0.00000  0.64896  0.25000  Biso   1.000  Ir
  Ir12     1.0000 0.50000  0.85104  0.75000  Biso   1.000  Ir
