data_image0
_cell_length_a       5.4654
_cell_length_b       3.55441
_cell_length_c       5.47906
_cell_angle_alpha    90
_cell_angle_beta     99.1451
_cell_angle_gamma    90

_symmetry_space_group_name_H-M    "P 1"
_symmetry_int_tables_number       1

loop_
  _symmetry_equiv_pos_as_xyz
  'x, y, z'

loop_
  _atom_site_label
  _atom_site_occupancy
  _atom_site_fract_x
  _atom_site_fract_y
  _atom_site_fract_z
  _atom_site_thermal_displace_type
  _atom_site_B_iso_or_equiv
  _atom_site_type_symbol
  Ir1      1.0000 0.37513  0.00000  0.12470  Biso   1.000  Ir
  Ir2      1.0000 0.87498  0.00000  0.62557  Biso   1.000  Ir
  O1       1.0000 0.54506  0.50000  0.95536  Biso   1.000  O
  O2       1.0000 0.04495  0.50000  0.45570  Biso   1.000  O
  O3       1.0000 0.95485  0.00000  0.04461  Biso   1.000  O
  O4       1.0000 0.45503  0.00000  0.54406  Biso   1.000  O
