data_image0
_cell_length_a       23.1221
_cell_length_b       23.122
_cell_length_c       11.3161
_cell_angle_alpha    90
_cell_angle_beta     90
_cell_angle_gamma    120

_symmetry_space_group_name_H-M    "P 1"
_symmetry_int_tables_number       1

loop_
  _symmetry_equiv_pos_as_xyz
  'x, y, z'

loop_
  _atom_site_label
  _atom_site_occupancy
  _atom_site_fract_x
  _atom_site_fract_y
  _atom_site_fract_z
  _atom_site_thermal_displace_type
  _atom_site_B_iso_or_equiv
  _atom_site_type_symbol
  O1       1.0000 0.48952  0.23803  0.25358  Biso   1.000  O
  O2       1.0000 0.09530  0.91816  0.92025  Biso   1.000  O
  O3       1.0000 0.41518  0.84381  0.58691  Biso   1.000  O
  O4       1.0000 0.17715  0.09530  0.07975  Biso   1.000  O
  O5       1.0000 0.57136  0.41518  0.41309  Biso   1.000  O
  O6       1.0000 0.25149  0.48952  0.74642  Biso   1.000  O
  O7       1.0000 0.08505  0.91994  0.17018  Biso   1.000  O
  O8       1.0000 0.41339  0.83178  0.83685  Biso   1.000  O
  O9       1.0000 0.50155  0.24828  0.50352  Biso   1.000  O
  O10      1.0000 0.58161  0.41339  0.16315  Biso   1.000  O
  O11      1.0000 0.25327  0.50155  0.49648  Biso   1.000  O
  O12      1.0000 0.16511  0.08505  0.82982  Biso   1.000  O
  O13      1.0000 0.32343  0.41942  0.91722  Biso   1.000  O
  O14      1.0000 0.24724  0.23734  0.25055  Biso   1.000  O
  O15      1.0000 0.42933  0.34324  0.58388  Biso   1.000  O
  O16      1.0000 0.34324  0.91391  0.41612  Biso   1.000  O
  O17      1.0000 0.41942  0.09599  0.08279  Biso   1.000  O
  O18      1.0000 0.23734  0.99010  0.74945  Biso   1.000  O
  O19      1.0000 0.40137  0.07569  0.34863  Biso   1.000  O
  O20      1.0000 0.25765  0.99235  0.01530  Biso   1.000  O
  O21      1.0000 0.34098  0.93196  0.68196  Biso   1.000  O
  O22      1.0000 0.26530  0.25765  0.98470  Biso   1.000  O
  O23      1.0000 0.40902  0.34098  0.31804  Biso   1.000  O
  O24      1.0000 0.32568  0.40137  0.65137  Biso   1.000  O
  O25      1.0000 0.15902  0.06806  0.31806  Biso   1.000  O
  O26      1.0000 0.26527  0.75763  0.98472  Biso   1.000  O
  O27      1.0000 0.57571  0.17431  0.65139  Biso   1.000  O
  O28      1.0000 0.50764  0.26527  0.01528  Biso   1.000  O
  O29      1.0000 0.40139  0.57571  0.34861  Biso   1.000  O
  O30      1.0000 0.09096  0.15902  0.68194  Biso   1.000  O
  O31      1.0000 0.17253  0.32957  0.07040  Biso   1.000  O
  O32      1.0000 0.33709  0.17629  0.40373  Biso   1.000  O
  O33      1.0000 0.49038  0.49414  0.73707  Biso   1.000  O
  O34      1.0000 0.49414  0.00376  0.26293  Biso   1.000  O
  O35      1.0000 0.32957  0.15704  0.92960  Biso   1.000  O
  O36      1.0000 0.17629  0.83920  0.59627  Biso   1.000  O
  O37      1.0000 0.25317  0.00155  0.49660  Biso   1.000  O
  O38      1.0000 0.33179  0.91829  0.16327  Biso   1.000  O
  O39      1.0000 0.41504  0.08017  0.82994  Biso   1.000  O
  O40      1.0000 0.41350  0.33179  0.83673  Biso   1.000  O
  O41      1.0000 0.33488  0.41505  0.17006  Biso   1.000  O
  O42      1.0000 0.25162  0.25317  0.50340  Biso   1.000  O
  O43      1.0000 0.41277  0.58491  0.10024  Biso   1.000  O
  O44      1.0000 0.08175  0.16119  0.43357  Biso   1.000  O
  O45      1.0000 0.50547  0.25389  0.76691  Biso   1.000  O
  O46      1.0000 0.25389  0.74842  0.23309  Biso   1.000  O
  O47      1.0000 0.58491  0.17214  0.89976  Biso   1.000  O
  O48      1.0000 0.16119  0.07944  0.56642  Biso   1.000  O
  O49      1.0000 0.15619  0.57136  0.58691  Biso   1.000  O
  O50      1.0000 0.76197  0.25149  0.25358  Biso   1.000  O
  O51      1.0000 0.08184  0.17715  0.92025  Biso   1.000  O
  O52      1.0000 0.84381  0.42864  0.41309  Biso   1.000  O
  O53      1.0000 0.23803  0.74851  0.74642  Biso   1.000  O
  O54      1.0000 0.91816  0.82285  0.07975  Biso   1.000  O
  O55      1.0000 0.75172  0.25327  0.50352  Biso   1.000  O
  O56      1.0000 0.08006  0.16511  0.17018  Biso   1.000  O
  O57      1.0000 0.16822  0.58161  0.83685  Biso   1.000  O
  O58      1.0000 0.24828  0.74673  0.49648  Biso   1.000  O
  O59      1.0000 0.91994  0.83489  0.82982  Biso   1.000  O
  O60      1.0000 0.83178  0.41839  0.16315  Biso   1.000  O
  O61      1.0000 0.99010  0.75276  0.25055  Biso   1.000  O
  O62      1.0000 0.91391  0.57068  0.58388  Biso   1.000  O
  O63      1.0000 0.09599  0.67657  0.91722  Biso   1.000  O
  O64      1.0000 0.00990  0.24724  0.74945  Biso   1.000  O
  O65      1.0000 0.08609  0.42933  0.41612  Biso   1.000  O
  O66      1.0000 0.90401  0.32343  0.08279  Biso   1.000  O
  O67      1.0000 0.06804  0.40902  0.68196  Biso   1.000  O
  O68      1.0000 0.92431  0.32568  0.34863  Biso   1.000  O
  O69      1.0000 0.00765  0.26530  0.01530  Biso   1.000  O
  O70      1.0000 0.93196  0.59098  0.31804  Biso   1.000  O
  O71      1.0000 0.07569  0.67432  0.65137  Biso   1.000  O
  O72      1.0000 0.99235  0.73471  0.98470  Biso   1.000  O
  O73      1.0000 0.82569  0.40139  0.65139  Biso   1.000  O
  O74      1.0000 0.93194  0.09096  0.31806  Biso   1.000  O
  O75      1.0000 0.24237  0.50764  0.98472  Biso   1.000  O
  O76      1.0000 0.17431  0.59861  0.34861  Biso   1.000  O
  O77      1.0000 0.06806  0.90904  0.68194  Biso   1.000  O
  O78      1.0000 0.75763  0.49236  0.01528  Biso   1.000  O
  O79      1.0000 0.83920  0.66291  0.40373  Biso   1.000  O
  O80      1.0000 0.00376  0.50962  0.73707  Biso   1.000  O
  O81      1.0000 0.15704  0.82747  0.07040  Biso   1.000  O
  O82      1.0000 0.16080  0.33709  0.59627  Biso   1.000  O
  O83      1.0000 0.99624  0.49038  0.26293  Biso   1.000  O
  O84      1.0000 0.84296  0.17253  0.92960  Biso   1.000  O
  O85      1.0000 0.91984  0.33488  0.82994  Biso   1.000  O
  O86      1.0000 0.99845  0.25162  0.49660  Biso   1.000  O
  O87      1.0000 0.08171  0.41350  0.16327  Biso   1.000  O
  O88      1.0000 0.08017  0.66512  0.17006  Biso   1.000  O
  O89      1.0000 0.00155  0.74838  0.50340  Biso   1.000  O
  O90      1.0000 0.91829  0.58650  0.83673  Biso   1.000  O
  O91      1.0000 0.07944  0.91825  0.43357  Biso   1.000  O
  O92      1.0000 0.74842  0.49453  0.76691  Biso   1.000  O
  O93      1.0000 0.17214  0.58723  0.10024  Biso   1.000  O
  O94      1.0000 0.92056  0.08175  0.56642  Biso   1.000  O
  O95      1.0000 0.25158  0.50547  0.23309  Biso   1.000  O
  O96      1.0000 0.82786  0.41277  0.89976  Biso   1.000  O
  O97      1.0000 0.82285  0.90470  0.92025  Biso   1.000  O
  O98      1.0000 0.42864  0.58483  0.58691  Biso   1.000  O
  O99      1.0000 0.74851  0.51048  0.25358  Biso   1.000  O
  O100     1.0000 0.51048  0.76197  0.74642  Biso   1.000  O
  O101     1.0000 0.90470  0.08184  0.07975  Biso   1.000  O
  O102     1.0000 0.58483  0.15619  0.41309  Biso   1.000  O
  O103     1.0000 0.41839  0.58661  0.83685  Biso   1.000  O
  O104     1.0000 0.74673  0.49845  0.50352  Biso   1.000  O
  O105     1.0000 0.83489  0.91495  0.17018  Biso   1.000  O
  O106     1.0000 0.91495  0.08006  0.82982  Biso   1.000  O
  O107     1.0000 0.58661  0.16822  0.16315  Biso   1.000  O
  O108     1.0000 0.49845  0.75172  0.49648  Biso   1.000  O
  O109     1.0000 0.65677  0.08609  0.58388  Biso   1.000  O
  O110     1.0000 0.58058  0.90401  0.91722  Biso   1.000  O
  O111     1.0000 0.76266  0.00990  0.25055  Biso   1.000  O
  O112     1.0000 0.67657  0.58058  0.08279  Biso   1.000  O
  O113     1.0000 0.75276  0.76266  0.74945  Biso   1.000  O
  O114     1.0000 0.57068  0.65677  0.41612  Biso   1.000  O
  O115     1.0000 0.73471  0.74236  0.01530  Biso   1.000  O
  O116     1.0000 0.59098  0.65902  0.68196  Biso   1.000  O
  O117     1.0000 0.67432  0.59863  0.34863  Biso   1.000  O
  O118     1.0000 0.59863  0.92431  0.65137  Biso   1.000  O
  O119     1.0000 0.74235  0.00765  0.98470  Biso   1.000  O
  O120     1.0000 0.65902  0.06804  0.31804  Biso   1.000  O
  O121     1.0000 0.49236  0.73473  0.98472  Biso   1.000  O
  O122     1.0000 0.59861  0.42430  0.65139  Biso   1.000  O
  O123     1.0000 0.90904  0.84098  0.31806  Biso   1.000  O
  O124     1.0000 0.84098  0.93194  0.68194  Biso   1.000  O
  O125     1.0000 0.73473  0.24237  0.01528  Biso   1.000  O
  O126     1.0000 0.42430  0.82569  0.34861  Biso   1.000  O
  O127     1.0000 0.50586  0.99624  0.73707  Biso   1.000  O
  O128     1.0000 0.67043  0.84296  0.07040  Biso   1.000  O
  O129     1.0000 0.82371  0.16080  0.40373  Biso   1.000  O
  O130     1.0000 0.82747  0.67043  0.92960  Biso   1.000  O
  O131     1.0000 0.66291  0.82371  0.59627  Biso   1.000  O
  O132     1.0000 0.50962  0.50586  0.26293  Biso   1.000  O
  O133     1.0000 0.58650  0.66821  0.16327  Biso   1.000  O
  O134     1.0000 0.66512  0.58496  0.82994  Biso   1.000  O
  O135     1.0000 0.74838  0.74683  0.49660  Biso   1.000  O
  O136     1.0000 0.74683  0.99845  0.50340  Biso   1.000  O
  O137     1.0000 0.66821  0.08171  0.83673  Biso   1.000  O
  O138     1.0000 0.58496  0.91984  0.17006  Biso   1.000  O
  O139     1.0000 0.74611  0.25158  0.76691  Biso   1.000  O
  O140     1.0000 0.41509  0.82786  0.10024  Biso   1.000  O
  O141     1.0000 0.83881  0.92056  0.43357  Biso   1.000  O
  O142     1.0000 0.58723  0.41509  0.89976  Biso   1.000  O
  O143     1.0000 0.91825  0.83881  0.56642  Biso   1.000  O
  O144     1.0000 0.49453  0.74611  0.23309  Biso   1.000  O
  Ir1      1.0000 0.31317  0.50744  0.87744  Biso   1.000  Ir
  Ir2      1.0000 0.15923  0.13907  0.21077  Biso   1.000  Ir
  Ir3      1.0000 0.52760  0.35350  0.54411  Biso   1.000  Ir
  Ir4      1.0000 0.35350  0.82590  0.45589  Biso   1.000  Ir
  Ir5      1.0000 0.50744  0.19426  0.12256  Biso   1.000  Ir
  Ir6      1.0000 0.13907  0.97984  0.78923  Biso   1.000  Ir
  Ir7      1.0000 0.27720  0.35274  0.04328  Biso   1.000  Ir
  Ir8      1.0000 0.31393  0.25779  0.37661  Biso   1.000  Ir
  Ir9      1.0000 0.40887  0.38947  0.70995  Biso   1.000  Ir
  Ir10     1.0000 0.38947  0.98060  0.29005  Biso   1.000  Ir
  Ir11     1.0000 0.35274  0.07554  0.95672  Biso   1.000  Ir
  Ir12     1.0000 0.25779  0.94387  0.62338  Biso   1.000  Ir
  Ir13     1.0000 0.43641  0.18233  0.38415  Biso   1.000  Ir
  Ir14     1.0000 0.15101  0.92075  0.05081  Biso   1.000  Ir
  Ir15     1.0000 0.41258  0.89692  0.71748  Biso   1.000  Ir
  Ir16     1.0000 0.23025  0.15101  0.94919  Biso   1.000  Ir
  Ir17     1.0000 0.51566  0.41258  0.28252  Biso   1.000  Ir
  Ir18     1.0000 0.25409  0.43641  0.61585  Biso   1.000  Ir
  Ir19     1.0000 0.17024  0.02007  0.44848  Biso   1.000  Ir
  Ir20     1.0000 0.31327  0.81684  0.11514  Biso   1.000  Ir
  Ir21     1.0000 0.51649  0.16310  0.78181  Biso   1.000  Ir
  Ir22     1.0000 0.49643  0.31327  0.88486  Biso   1.000  Ir
  Ir23     1.0000 0.35340  0.51649  0.21819  Biso   1.000  Ir
  Ir24     1.0000 0.15017  0.17024  0.55153  Biso   1.000  Ir
  Ir25     1.0000 0.97984  0.84077  0.21077  Biso   1.000  Ir
  Ir26     1.0000 0.82590  0.47240  0.54411  Biso   1.000  Ir
  Ir27     1.0000 0.19426  0.68683  0.87744  Biso   1.000  Ir
  Ir28     1.0000 0.02016  0.15923  0.78923  Biso   1.000  Ir
  Ir29     1.0000 0.17410  0.52760  0.45589  Biso   1.000  Ir
  Ir30     1.0000 0.80574  0.31317  0.12256  Biso   1.000  Ir
  Ir31     1.0000 0.94387  0.68607  0.37661  Biso   1.000  Ir
  Ir32     1.0000 0.98060  0.59113  0.70995  Biso   1.000  Ir
  Ir33     1.0000 0.07554  0.72280  0.04328  Biso   1.000  Ir
  Ir34     1.0000 0.05613  0.31393  0.62338  Biso   1.000  Ir
  Ir35     1.0000 0.01940  0.40887  0.29005  Biso   1.000  Ir
  Ir36     1.0000 0.92446  0.27720  0.95672  Biso   1.000  Ir
  Ir37     1.0000 0.10308  0.51566  0.71748  Biso   1.000  Ir
  Ir38     1.0000 0.81767  0.25409  0.38415  Biso   1.000  Ir
  Ir39     1.0000 0.07925  0.23025  0.05081  Biso   1.000  Ir
  Ir40     1.0000 0.89692  0.48434  0.28252  Biso   1.000  Ir
  Ir41     1.0000 0.18233  0.74591  0.61585  Biso   1.000  Ir
  Ir42     1.0000 0.92075  0.76975  0.94919  Biso   1.000  Ir
  Ir43     1.0000 0.83691  0.35340  0.78181  Biso   1.000  Ir
  Ir44     1.0000 0.97993  0.15017  0.44848  Biso   1.000  Ir
  Ir45     1.0000 0.18316  0.49643  0.11514  Biso   1.000  Ir
  Ir46     1.0000 0.16310  0.64660  0.21819  Biso   1.000  Ir
  Ir47     1.0000 0.02007  0.84983  0.55153  Biso   1.000  Ir
  Ir48     1.0000 0.81684  0.50357  0.88486  Biso   1.000  Ir
  Ir49     1.0000 0.64651  0.17410  0.54411  Biso   1.000  Ir
  Ir50     1.0000 0.49256  0.80574  0.87744  Biso   1.000  Ir
  Ir51     1.0000 0.86093  0.02016  0.21077  Biso   1.000  Ir
  Ir52     1.0000 0.68683  0.49256  0.12256  Biso   1.000  Ir
  Ir53     1.0000 0.84077  0.86093  0.78923  Biso   1.000  Ir
  Ir54     1.0000 0.47240  0.64651  0.45589  Biso   1.000  Ir
  Ir55     1.0000 0.61053  0.01940  0.70995  Biso   1.000  Ir
  Ir56     1.0000 0.64726  0.92446  0.04328  Biso   1.000  Ir
  Ir57     1.0000 0.74221  0.05613  0.37661  Biso   1.000  Ir
  Ir58     1.0000 0.72280  0.64726  0.95672  Biso   1.000  Ir
  Ir59     1.0000 0.68607  0.74221  0.62338  Biso   1.000  Ir
  Ir60     1.0000 0.59113  0.61053  0.29005  Biso   1.000  Ir
  Ir61     1.0000 0.76975  0.84899  0.05081  Biso   1.000  Ir
  Ir62     1.0000 0.48434  0.58742  0.71748  Biso   1.000  Ir
  Ir63     1.0000 0.74591  0.56359  0.38415  Biso   1.000  Ir
  Ir64     1.0000 0.56359  0.81767  0.61585  Biso   1.000  Ir
  Ir65     1.0000 0.84899  0.07925  0.94919  Biso   1.000  Ir
  Ir66     1.0000 0.58742  0.10308  0.28252  Biso   1.000  Ir
  Ir67     1.0000 0.50357  0.68673  0.11514  Biso   1.000  Ir
  Ir68     1.0000 0.64660  0.48351  0.78181  Biso   1.000  Ir
  Ir69     1.0000 0.84983  0.82976  0.44848  Biso   1.000  Ir
  Ir70     1.0000 0.82976  0.97993  0.55153  Biso   1.000  Ir
  Ir71     1.0000 0.68673  0.18316  0.88486  Biso   1.000  Ir
  Ir72     1.0000 0.48351  0.83691  0.21819  Biso   1.000  Ir
