data_image0
_cell_length_a       17.6517
_cell_length_b       10.2462
_cell_length_c       24.9602
_cell_angle_alpha    90
_cell_angle_beta     90
_cell_angle_gamma    90

_symmetry_space_group_name_H-M    "P 1"
_symmetry_int_tables_number       1

loop_
  _symmetry_equiv_pos_as_xyz
  'x, y, z'

loop_
  _atom_site_label
  _atom_site_occupancy
  _atom_site_fract_x
  _atom_site_fract_y
  _atom_site_fract_z
  _atom_site_thermal_displace_type
  _atom_site_B_iso_or_equiv
  _atom_site_type_symbol
  O1       1.0000 0.59004  0.96256  0.80668  Biso   1.000  O
  O2       1.0000 0.40996  0.53744  0.80668  Biso   1.000  O
  O3       1.0000 0.40996  0.46256  0.19332  Biso   1.000  O
  O4       1.0000 0.59004  0.03744  0.19332  Biso   1.000  O
  O5       1.0000 0.40996  0.03744  0.19332  Biso   1.000  O
  O6       1.0000 0.59004  0.46256  0.19332  Biso   1.000  O
  O7       1.0000 0.59004  0.53744  0.80668  Biso   1.000  O
  O8       1.0000 0.40996  0.96256  0.80668  Biso   1.000  O
  O9       1.0000 0.21884  0.00000  0.00000  Biso   1.000  O
  O10      1.0000 0.78116  0.50000  0.00000  Biso   1.000  O
  O11      1.0000 0.78116  0.00000  0.00000  Biso   1.000  O
  O12      1.0000 0.21884  0.50000  0.00000  Biso   1.000  O
  O13      1.0000 0.26447  0.97079  0.12177  Biso   1.000  O
  O14      1.0000 0.73553  0.52921  0.12177  Biso   1.000  O
  O15      1.0000 0.73553  0.47079  0.87823  Biso   1.000  O
  O16      1.0000 0.26447  0.02921  0.87823  Biso   1.000  O
  O17      1.0000 0.73553  0.02921  0.87823  Biso   1.000  O
  O18      1.0000 0.26447  0.47079  0.87823  Biso   1.000  O
  O19      1.0000 0.26447  0.52921  0.12177  Biso   1.000  O
  O20      1.0000 0.73553  0.97079  0.12177  Biso   1.000  O
  O21      1.0000 0.50000  0.25000  0.26364  Biso   1.000  O
  O22      1.0000 0.50000  0.75000  0.73636  Biso   1.000  O
  O23      1.0000 0.50000  0.25000  0.60142  Biso   1.000  O
  O24      1.0000 0.50000  0.75000  0.39858  Biso   1.000  O
  O25      1.0000 0.41037  0.47810  0.40985  Biso   1.000  O
  O26      1.0000 0.58963  0.02190  0.40985  Biso   1.000  O
  O27      1.0000 0.58963  0.97810  0.59015  Biso   1.000  O
  O28      1.0000 0.41037  0.52190  0.59015  Biso   1.000  O
  O29      1.0000 0.58963  0.52190  0.59015  Biso   1.000  O
  O30      1.0000 0.41037  0.97810  0.59015  Biso   1.000  O
  O31      1.0000 0.41037  0.02190  0.40985  Biso   1.000  O
  O32      1.0000 0.58963  0.47810  0.40985  Biso   1.000  O
  O33      1.0000 0.78737  0.75000  0.92226  Biso   1.000  O
  O34      1.0000 0.21263  0.75000  0.92226  Biso   1.000  O
  O35      1.0000 0.21263  0.25000  0.07774  Biso   1.000  O
  O36      1.0000 0.78737  0.25000  0.07774  Biso   1.000  O
  O37      1.0000 0.34021  0.75000  0.19512  Biso   1.000  O
  O38      1.0000 0.65979  0.75000  0.19512  Biso   1.000  O
  O39      1.0000 0.65979  0.25000  0.80488  Biso   1.000  O
  O40      1.0000 0.34021  0.25000  0.80488  Biso   1.000  O
  O41      1.0000 0.50000  0.04836  0.69923  Biso   1.000  O
  O42      1.0000 0.50000  0.45164  0.69923  Biso   1.000  O
  O43      1.0000 0.50000  0.54836  0.30077  Biso   1.000  O
  O44      1.0000 0.50000  0.95164  0.30077  Biso   1.000  O
  O45      1.0000 0.25000  0.01078  0.75000  Biso   1.000  O
  O46      1.0000 0.25000  0.98922  0.25000  Biso   1.000  O
  O47      1.0000 0.25000  0.48922  0.75000  Biso   1.000  O
  O48      1.0000 0.25000  0.51078  0.25000  Biso   1.000  O
  O49      1.0000 0.09004  0.46256  0.30668  Biso   1.000  O
  O50      1.0000 0.90996  0.03744  0.30668  Biso   1.000  O
  O51      1.0000 0.90996  0.96256  0.69332  Biso   1.000  O
  O52      1.0000 0.09004  0.53744  0.69332  Biso   1.000  O
  O53      1.0000 0.90996  0.53744  0.69332  Biso   1.000  O
  O54      1.0000 0.09004  0.96256  0.69332  Biso   1.000  O
  O55      1.0000 0.09004  0.03744  0.30668  Biso   1.000  O
  O56      1.0000 0.90996  0.46256  0.30668  Biso   1.000  O
  O57      1.0000 0.71884  0.50000  0.50000  Biso   1.000  O
  O58      1.0000 0.28116  0.00000  0.50000  Biso   1.000  O
  O59      1.0000 0.28116  0.50000  0.50000  Biso   1.000  O
  O60      1.0000 0.71884  0.00000  0.50000  Biso   1.000  O
  O61      1.0000 0.76447  0.47079  0.62177  Biso   1.000  O
  O62      1.0000 0.23553  0.02921  0.62177  Biso   1.000  O
  O63      1.0000 0.23553  0.97079  0.37823  Biso   1.000  O
  O64      1.0000 0.76447  0.52921  0.37823  Biso   1.000  O
  O65      1.0000 0.23553  0.52921  0.37823  Biso   1.000  O
  O66      1.0000 0.76447  0.97079  0.37823  Biso   1.000  O
  O67      1.0000 0.76447  0.02921  0.62177  Biso   1.000  O
  O68      1.0000 0.23553  0.47079  0.62177  Biso   1.000  O
  O69      1.0000 0.00000  0.75000  0.76364  Biso   1.000  O
  O70      1.0000 0.00000  0.25000  0.23636  Biso   1.000  O
  O71      1.0000 0.00000  0.75000  0.10142  Biso   1.000  O
  O72      1.0000 0.00000  0.25000  0.89858  Biso   1.000  O
  O73      1.0000 0.91037  0.97810  0.90985  Biso   1.000  O
  O74      1.0000 0.08963  0.52190  0.90985  Biso   1.000  O
  O75      1.0000 0.08963  0.47810  0.09015  Biso   1.000  O
  O76      1.0000 0.91037  0.02190  0.09015  Biso   1.000  O
  O77      1.0000 0.08963  0.02190  0.09015  Biso   1.000  O
  O78      1.0000 0.91037  0.47810  0.09015  Biso   1.000  O
  O79      1.0000 0.91037  0.52190  0.90985  Biso   1.000  O
  O80      1.0000 0.08963  0.97810  0.90985  Biso   1.000  O
  O81      1.0000 0.28737  0.25000  0.42226  Biso   1.000  O
  O82      1.0000 0.71263  0.25000  0.42226  Biso   1.000  O
  O83      1.0000 0.71263  0.75000  0.57774  Biso   1.000  O
  O84      1.0000 0.28737  0.75000  0.57774  Biso   1.000  O
  O85      1.0000 0.84021  0.25000  0.69512  Biso   1.000  O
  O86      1.0000 0.15979  0.25000  0.69512  Biso   1.000  O
  O87      1.0000 0.15979  0.75000  0.30488  Biso   1.000  O
  O88      1.0000 0.84021  0.75000  0.30488  Biso   1.000  O
  O89      1.0000 0.00000  0.54836  0.19923  Biso   1.000  O
  O90      1.0000 0.00000  0.95164  0.19923  Biso   1.000  O
  O91      1.0000 0.00000  0.04836  0.80077  Biso   1.000  O
  O92      1.0000 0.00000  0.45164  0.80077  Biso   1.000  O
  O93      1.0000 0.75000  0.51078  0.25000  Biso   1.000  O
  O94      1.0000 0.75000  0.48922  0.75000  Biso   1.000  O
  O95      1.0000 0.75000  0.98922  0.25000  Biso   1.000  O
  O96      1.0000 0.75000  0.01078  0.75000  Biso   1.000  O
  Ir1      1.0000 0.31555  0.56349  0.18988  Biso   1.000  Ir
  Ir2      1.0000 0.68445  0.93651  0.18988  Biso   1.000  Ir
  Ir3      1.0000 0.68445  0.06349  0.81012  Biso   1.000  Ir
  Ir4      1.0000 0.31555  0.43651  0.81012  Biso   1.000  Ir
  Ir5      1.0000 0.68445  0.43651  0.81012  Biso   1.000  Ir
  Ir6      1.0000 0.31555  0.06349  0.81012  Biso   1.000  Ir
  Ir7      1.0000 0.31555  0.93651  0.18988  Biso   1.000  Ir
  Ir8      1.0000 0.68445  0.56349  0.18988  Biso   1.000  Ir
  Ir9      1.0000 0.80432  0.43864  0.07247  Biso   1.000  Ir
  Ir10     1.0000 0.19568  0.06136  0.07247  Biso   1.000  Ir
  Ir11     1.0000 0.19568  0.93864  0.92753  Biso   1.000  Ir
  Ir12     1.0000 0.80432  0.56136  0.92753  Biso   1.000  Ir
  Ir13     1.0000 0.19568  0.56136  0.92753  Biso   1.000  Ir
  Ir14     1.0000 0.80432  0.93864  0.92753  Biso   1.000  Ir
  Ir15     1.0000 0.80432  0.06136  0.07247  Biso   1.000  Ir
  Ir16     1.0000 0.19568  0.43864  0.07247  Biso   1.000  Ir
  Ir17     1.0000 0.50000  0.06825  0.23790  Biso   1.000  Ir
  Ir18     1.0000 0.50000  0.43175  0.23790  Biso   1.000  Ir
  Ir19     1.0000 0.50000  0.56825  0.76210  Biso   1.000  Ir
  Ir20     1.0000 0.50000  0.93175  0.76210  Biso   1.000  Ir
  Ir21     1.0000 0.50000  0.06344  0.62045  Biso   1.000  Ir
  Ir22     1.0000 0.50000  0.43656  0.62045  Biso   1.000  Ir
  Ir23     1.0000 0.50000  0.56344  0.37955  Biso   1.000  Ir
  Ir24     1.0000 0.50000  0.93656  0.37955  Biso   1.000  Ir
  Ir25     1.0000 0.81555  0.06349  0.68988  Biso   1.000  Ir
  Ir26     1.0000 0.18445  0.43651  0.68988  Biso   1.000  Ir
  Ir27     1.0000 0.18445  0.56349  0.31012  Biso   1.000  Ir
  Ir28     1.0000 0.81555  0.93651  0.31012  Biso   1.000  Ir
  Ir29     1.0000 0.18445  0.93651  0.31012  Biso   1.000  Ir
  Ir30     1.0000 0.81555  0.56349  0.31012  Biso   1.000  Ir
  Ir31     1.0000 0.81555  0.43651  0.68988  Biso   1.000  Ir
  Ir32     1.0000 0.18445  0.06349  0.68988  Biso   1.000  Ir
  Ir33     1.0000 0.30432  0.93864  0.57247  Biso   1.000  Ir
  Ir34     1.0000 0.69568  0.56136  0.57247  Biso   1.000  Ir
  Ir35     1.0000 0.69568  0.43864  0.42752  Biso   1.000  Ir
  Ir36     1.0000 0.30432  0.06136  0.42752  Biso   1.000  Ir
  Ir37     1.0000 0.69568  0.06136  0.42752  Biso   1.000  Ir
  Ir38     1.0000 0.30432  0.43864  0.42752  Biso   1.000  Ir
  Ir39     1.0000 0.30432  0.56136  0.57247  Biso   1.000  Ir
  Ir40     1.0000 0.69568  0.93864  0.57247  Biso   1.000  Ir
  Ir41     1.0000 0.00000  0.56825  0.73790  Biso   1.000  Ir
  Ir42     1.0000 0.00000  0.93175  0.73790  Biso   1.000  Ir
  Ir43     1.0000 0.00000  0.06825  0.26210  Biso   1.000  Ir
  Ir44     1.0000 0.00000  0.43175  0.26210  Biso   1.000  Ir
  Ir45     1.0000 0.00000  0.56344  0.12045  Biso   1.000  Ir
  Ir46     1.0000 0.00000  0.93656  0.12045  Biso   1.000  Ir
  Ir47     1.0000 0.00000  0.06344  0.87955  Biso   1.000  Ir
  Ir48     1.0000 0.00000  0.43656  0.87955  Biso   1.000  Ir
