data_image0
_cell_length_a       16.6838
_cell_length_b       16.6838
_cell_length_c       16.6838
_cell_angle_alpha    90
_cell_angle_beta     90
_cell_angle_gamma    90

_symmetry_space_group_name_H-M    "P 1"
_symmetry_int_tables_number       1

loop_
  _symmetry_equiv_pos_as_xyz
  'x, y, z'

loop_
  _atom_site_label
  _atom_site_occupancy
  _atom_site_fract_x
  _atom_site_fract_y
  _atom_site_fract_z
  _atom_site_thermal_displace_type
  _atom_site_B_iso_or_equiv
  _atom_site_type_symbol
  O1       1.0000 0.40453  0.40433  0.00068  Biso   1.000  O
  O2       1.0000 0.09547  0.59567  0.50068  Biso   1.000  O
  O3       1.0000 0.59547  0.90433  0.49932  Biso   1.000  O
  O4       1.0000 0.90453  0.09567  0.99932  Biso   1.000  O
  O5       1.0000 0.00068  0.40453  0.40433  Biso   1.000  O
  O6       1.0000 0.50068  0.09547  0.59567  Biso   1.000  O
  O7       1.0000 0.49932  0.59547  0.90433  Biso   1.000  O
  O8       1.0000 0.99932  0.90453  0.09567  Biso   1.000  O
  O9       1.0000 0.40433  0.00068  0.40453  Biso   1.000  O
  O10      1.0000 0.59567  0.50068  0.09547  Biso   1.000  O
  O11      1.0000 0.90433  0.49932  0.59547  Biso   1.000  O
  O12      1.0000 0.09567  0.99932  0.90453  Biso   1.000  O
  O13      1.0000 0.59547  0.59567  0.99932  Biso   1.000  O
  O14      1.0000 0.90453  0.40433  0.49932  Biso   1.000  O
  O15      1.0000 0.40453  0.09567  0.50068  Biso   1.000  O
  O16      1.0000 0.09547  0.90433  0.00068  Biso   1.000  O
  O17      1.0000 0.99932  0.59547  0.59567  Biso   1.000  O
  O18      1.0000 0.49932  0.90453  0.40433  Biso   1.000  O
  O19      1.0000 0.50068  0.40453  0.09567  Biso   1.000  O
  O20      1.0000 0.00068  0.09547  0.90433  Biso   1.000  O
  O21      1.0000 0.59567  0.99932  0.59547  Biso   1.000  O
  O22      1.0000 0.40433  0.49932  0.90453  Biso   1.000  O
  O23      1.0000 0.09567  0.50068  0.40453  Biso   1.000  O
  O24      1.0000 0.90433  0.00068  0.09547  Biso   1.000  O
  O25      1.0000 0.30670  0.30909  0.00260  Biso   1.000  O
  O26      1.0000 0.19331  0.69091  0.50261  Biso   1.000  O
  O27      1.0000 0.69330  0.80909  0.49739  Biso   1.000  O
  O28      1.0000 0.80670  0.19091  0.99740  Biso   1.000  O
  O29      1.0000 0.00260  0.30670  0.30909  Biso   1.000  O
  O30      1.0000 0.50261  0.19331  0.69091  Biso   1.000  O
  O31      1.0000 0.49739  0.69330  0.80909  Biso   1.000  O
  O32      1.0000 0.99740  0.80670  0.19091  Biso   1.000  O
  O33      1.0000 0.30909  0.00260  0.30670  Biso   1.000  O
  O34      1.0000 0.69091  0.50261  0.19331  Biso   1.000  O
  O35      1.0000 0.80909  0.49739  0.69330  Biso   1.000  O
  O36      1.0000 0.19091  0.99740  0.80670  Biso   1.000  O
  O37      1.0000 0.69330  0.69091  0.99740  Biso   1.000  O
  O38      1.0000 0.80670  0.30909  0.49739  Biso   1.000  O
  O39      1.0000 0.30670  0.19091  0.50261  Biso   1.000  O
  O40      1.0000 0.19331  0.80909  0.00260  Biso   1.000  O
  O41      1.0000 0.99740  0.69330  0.69091  Biso   1.000  O
  O42      1.0000 0.49739  0.80670  0.30909  Biso   1.000  O
  O43      1.0000 0.50261  0.30670  0.19091  Biso   1.000  O
  O44      1.0000 0.00260  0.19331  0.80909  Biso   1.000  O
  O45      1.0000 0.69091  0.99740  0.69330  Biso   1.000  O
  O46      1.0000 0.30909  0.49739  0.80670  Biso   1.000  O
  O47      1.0000 0.19091  0.50261  0.30670  Biso   1.000  O
  O48      1.0000 0.80909  0.00260  0.19331  Biso   1.000  O
  Ir1      1.0000 0.22485  0.23190  0.00551  Biso   1.000  Ir
  Ir2      1.0000 0.27515  0.76810  0.50551  Biso   1.000  Ir
  Ir3      1.0000 0.77515  0.73190  0.49449  Biso   1.000  Ir
  Ir4      1.0000 0.72485  0.26810  0.99449  Biso   1.000  Ir
  Ir5      1.0000 0.00551  0.22485  0.23190  Biso   1.000  Ir
  Ir6      1.0000 0.50551  0.27515  0.76810  Biso   1.000  Ir
  Ir7      1.0000 0.49449  0.77515  0.73190  Biso   1.000  Ir
  Ir8      1.0000 0.99449  0.72485  0.26810  Biso   1.000  Ir
  Ir9      1.0000 0.23190  0.00551  0.22485  Biso   1.000  Ir
  Ir10     1.0000 0.76810  0.50551  0.27515  Biso   1.000  Ir
  Ir11     1.0000 0.73190  0.49449  0.77515  Biso   1.000  Ir
  Ir12     1.0000 0.26810  0.99449  0.72485  Biso   1.000  Ir
  Ir13     1.0000 0.77515  0.76810  0.99449  Biso   1.000  Ir
  Ir14     1.0000 0.72485  0.23190  0.49449  Biso   1.000  Ir
  Ir15     1.0000 0.22485  0.26810  0.50551  Biso   1.000  Ir
  Ir16     1.0000 0.27515  0.73190  0.00551  Biso   1.000  Ir
  Ir17     1.0000 0.99449  0.77515  0.76810  Biso   1.000  Ir
  Ir18     1.0000 0.49449  0.72485  0.23190  Biso   1.000  Ir
  Ir19     1.0000 0.50551  0.22485  0.26810  Biso   1.000  Ir
  Ir20     1.0000 0.00551  0.27515  0.73190  Biso   1.000  Ir
  Ir21     1.0000 0.76810  0.99449  0.77515  Biso   1.000  Ir
  Ir22     1.0000 0.23190  0.49449  0.72485  Biso   1.000  Ir
  Ir23     1.0000 0.26810  0.50551  0.22485  Biso   1.000  Ir
  Ir24     1.0000 0.73190  0.00551  0.27515  Biso   1.000  Ir
