data_image0
_cell_length_a       27.7383
_cell_length_b       27.7383
_cell_length_c       8.78988
_cell_angle_alpha    90
_cell_angle_beta     90
_cell_angle_gamma    120

_symmetry_space_group_name_H-M    "P 1"
_symmetry_int_tables_number       1

loop_
  _symmetry_equiv_pos_as_xyz
  'x, y, z'

loop_
  _atom_site_label
  _atom_site_occupancy
  _atom_site_fract_x
  _atom_site_fract_y
  _atom_site_fract_z
  _atom_site_thermal_displace_type
  _atom_site_B_iso_or_equiv
  _atom_site_type_symbol
  O1       1.0000 0.99155  0.49578  0.68394  Biso   1.000  O
  O2       1.0000 0.83756  0.16244  0.35061  Biso   1.000  O
  O3       1.0000 0.83756  0.67511  0.35061  Biso   1.000  O
  O4       1.0000 0.00845  0.50422  0.31606  Biso   1.000  O
  O5       1.0000 0.82911  0.65822  0.98272  Biso   1.000  O
  O6       1.0000 0.16244  0.83756  0.64939  Biso   1.000  O
  O7       1.0000 0.95085  0.61752  0.33333  Biso   1.000  O
  O8       1.0000 0.04915  0.66667  0.66667  Biso   1.000  O
  O9       1.0000 1.00000  0.71582  0.00000  Biso   1.000  O
  O10      1.0000 0.04915  0.38248  0.66667  Biso   1.000  O
  O11      1.0000 0.95085  0.33333  0.33333  Biso   1.000  O
  O12      1.0000 0.00000  0.28418  0.00000  Biso   1.000  O
  O13      1.0000 0.10269  0.76936  0.33333  Biso   1.000  O
  O14      1.0000 0.89731  0.66667  0.66667  Biso   1.000  O
  O15      1.0000 0.00000  0.56398  0.00000  Biso   1.000  O
  O16      1.0000 0.89731  0.23064  0.66667  Biso   1.000  O
  O17      1.0000 0.10269  0.33333  0.33333  Biso   1.000  O
  O18      1.0000 0.00000  0.43602  0.00000  Biso   1.000  O
  O19      1.0000 0.10894  0.44228  0.16667  Biso   1.000  O
  O20      1.0000 0.89106  0.33333  0.83333  Biso   1.000  O
  O21      1.0000 0.00000  0.22439  0.50000  Biso   1.000  O
  O22      1.0000 0.89106  0.55772  0.83333  Biso   1.000  O
  O23      1.0000 0.10894  0.66667  0.16667  Biso   1.000  O
  O24      1.0000 0.00000  0.77561  0.50000  Biso   1.000  O
  O25      1.0000 0.65822  0.82911  0.01728  Biso   1.000  O
  O26      1.0000 0.50422  0.49578  0.68394  Biso   1.000  O
  O27      1.0000 0.50422  0.00845  0.68394  Biso   1.000  O
  O28      1.0000 0.67511  0.83756  0.64939  Biso   1.000  O
  O29      1.0000 0.49578  0.99155  0.31606  Biso   1.000  O
  O30      1.0000 0.82911  0.17089  0.98272  Biso   1.000  O
  O31      1.0000 0.61752  0.95085  0.66667  Biso   1.000  O
  O32      1.0000 0.71582  0.00000  0.00000  Biso   1.000  O
  O33      1.0000 0.66667  0.04915  0.33333  Biso   1.000  O
  O34      1.0000 0.71582  0.71582  0.00000  Biso   1.000  O
  O35      1.0000 0.61752  0.66667  0.66667  Biso   1.000  O
  O36      1.0000 0.66667  0.61752  0.33333  Biso   1.000  O
  O37      1.0000 0.76936  0.10269  0.66667  Biso   1.000  O
  O38      1.0000 0.56398  0.00000  0.00000  Biso   1.000  O
  O39      1.0000 0.66667  0.89731  0.33333  Biso   1.000  O
  O40      1.0000 0.56398  0.56398  0.00000  Biso   1.000  O
  O41      1.0000 0.76936  0.66667  0.66667  Biso   1.000  O
  O42      1.0000 0.66667  0.76936  0.33333  Biso   1.000  O
  O43      1.0000 0.77561  0.77561  0.50000  Biso   1.000  O
  O44      1.0000 0.55772  0.66667  0.16667  Biso   1.000  O
  O45      1.0000 0.66667  0.55772  0.83333  Biso   1.000  O
  O46      1.0000 0.55772  0.89106  0.16667  Biso   1.000  O
  O47      1.0000 0.77561  0.00000  0.50000  Biso   1.000  O
  O48      1.0000 0.66667  0.10894  0.83333  Biso   1.000  O
  O49      1.0000 0.32489  0.16244  0.35061  Biso   1.000  O
  O50      1.0000 0.17089  0.82911  0.01728  Biso   1.000  O
  O51      1.0000 0.17089  0.34178  0.01728  Biso   1.000  O
  O52      1.0000 0.34178  0.17089  0.98272  Biso   1.000  O
  O53      1.0000 0.16244  0.32489  0.64939  Biso   1.000  O
  O54      1.0000 0.49578  0.50422  0.31606  Biso   1.000  O
  O55      1.0000 0.28418  0.28418  0.00000  Biso   1.000  O
  O56      1.0000 0.38248  0.33333  0.33333  Biso   1.000  O
  O57      1.0000 0.33333  0.38248  0.66667  Biso   1.000  O
  O58      1.0000 0.38248  0.04915  0.33333  Biso   1.000  O
  O59      1.0000 0.28418  0.00000  0.00000  Biso   1.000  O
  O60      1.0000 0.33333  0.95085  0.66667  Biso   1.000  O
  O61      1.0000 0.43603  0.43602  0.00000  Biso   1.000  O
  O62      1.0000 0.23064  0.33333  0.33333  Biso   1.000  O
  O63      1.0000 0.33333  0.23064  0.66667  Biso   1.000  O
  O64      1.0000 0.23064  0.89731  0.33333  Biso   1.000  O
  O65      1.0000 0.43602  0.00000  0.00000  Biso   1.000  O
  O66      1.0000 0.33333  0.10269  0.66667  Biso   1.000  O
  O67      1.0000 0.44228  0.10894  0.83333  Biso   1.000  O
  O68      1.0000 0.22439  0.00000  0.50000  Biso   1.000  O
  O69      1.0000 0.33333  0.89106  0.16667  Biso   1.000  O
  O70      1.0000 0.22439  0.22439  0.50000  Biso   1.000  O
  O71      1.0000 0.44228  0.33333  0.83333  Biso   1.000  O
  O72      1.0000 0.33333  0.44228  0.16667  Biso   1.000  O
  Ir1      1.0000 0.07955  0.75982  0.54892  Biso   1.000  Ir
  Ir2      1.0000 0.90684  0.65307  0.88225  Biso   1.000  Ir
  Ir3      1.0000 0.01360  0.58711  0.21558  Biso   1.000  Ir
  Ir4      1.0000 0.92045  0.68027  0.45108  Biso   1.000  Ir
  Ir5      1.0000 0.09316  0.74622  0.11775  Biso   1.000  Ir
  Ir6      1.0000 0.98640  0.57351  0.78442  Biso   1.000  Ir
  Ir7      1.0000 0.92045  0.24018  0.45108  Biso   1.000  Ir
  Ir8      1.0000 0.09316  0.34693  0.11775  Biso   1.000  Ir
  Ir9      1.0000 0.98640  0.41289  0.78442  Biso   1.000  Ir
  Ir10     1.0000 0.07955  0.31973  0.54892  Biso   1.000  Ir
  Ir11     1.0000 0.90684  0.25378  0.88225  Biso   1.000  Ir
  Ir12     1.0000 0.01360  0.42649  0.21558  Biso   1.000  Ir
  Ir13     1.0000 0.74622  0.09316  0.88225  Biso   1.000  Ir
  Ir14     1.0000 0.57351  0.98640  0.21558  Biso   1.000  Ir
  Ir15     1.0000 0.68027  0.92045  0.54892  Biso   1.000  Ir
  Ir16     1.0000 0.58711  0.01360  0.78442  Biso   1.000  Ir
  Ir17     1.0000 0.75982  0.07955  0.45108  Biso   1.000  Ir
  Ir18     1.0000 0.65307  0.90684  0.11775  Biso   1.000  Ir
  Ir19     1.0000 0.58711  0.57351  0.78442  Biso   1.000  Ir
  Ir20     1.0000 0.75982  0.68027  0.45108  Biso   1.000  Ir
  Ir21     1.0000 0.65307  0.74622  0.11775  Biso   1.000  Ir
  Ir22     1.0000 0.74622  0.65307  0.88225  Biso   1.000  Ir
  Ir23     1.0000 0.57351  0.58711  0.21558  Biso   1.000  Ir
  Ir24     1.0000 0.68027  0.75982  0.54892  Biso   1.000  Ir
  Ir25     1.0000 0.41289  0.42649  0.21558  Biso   1.000  Ir
  Ir26     1.0000 0.24018  0.31973  0.54892  Biso   1.000  Ir
  Ir27     1.0000 0.34693  0.25378  0.88225  Biso   1.000  Ir
  Ir28     1.0000 0.25378  0.34693  0.11775  Biso   1.000  Ir
  Ir29     1.0000 0.42649  0.41289  0.78442  Biso   1.000  Ir
  Ir30     1.0000 0.31973  0.24018  0.45108  Biso   1.000  Ir
  Ir31     1.0000 0.25378  0.90684  0.11775  Biso   1.000  Ir
  Ir32     1.0000 0.42649  0.01360  0.78442  Biso   1.000  Ir
  Ir33     1.0000 0.31973  0.07955  0.45108  Biso   1.000  Ir
  Ir34     1.0000 0.41289  0.98640  0.21558  Biso   1.000  Ir
  Ir35     1.0000 0.24018  0.92045  0.54892  Biso   1.000  Ir
  Ir36     1.0000 0.34693  0.09316  0.88225  Biso   1.000  Ir
