data_image0
_cell_length_a       32.6909
_cell_length_b       32.6908
_cell_length_c       7.78572
_cell_angle_alpha    90
_cell_angle_beta     90
_cell_angle_gamma    120

_symmetry_space_group_name_H-M    "P 1"
_symmetry_int_tables_number       1

loop_
  _symmetry_equiv_pos_as_xyz
  'x, y, z'

loop_
  _atom_site_label
  _atom_site_occupancy
  _atom_site_fract_x
  _atom_site_fract_y
  _atom_site_fract_z
  _atom_site_thermal_displace_type
  _atom_site_B_iso_or_equiv
  _atom_site_type_symbol
  Ir1      1.0000 0.17889  0.50767  0.56273  Biso   1.000  Ir
  Ir2      1.0000 0.82566  0.33788  0.22940  Biso   1.000  Ir
  Ir3      1.0000 0.99545  0.15444  0.89607  Biso   1.000  Ir
  Ir4      1.0000 0.17889  0.67122  0.06273  Biso   1.000  Ir
  Ir5      1.0000 0.82566  0.48777  0.72940  Biso   1.000  Ir
  Ir6      1.0000 0.99545  0.84101  0.39607  Biso   1.000  Ir
  Ir7      1.0000 0.14137  0.47455  0.06091  Biso   1.000  Ir
  Ir8      1.0000 0.85879  0.33348  0.72758  Biso   1.000  Ir
  Ir9      1.0000 0.99985  0.19197  0.39425  Biso   1.000  Ir
  Ir10     1.0000 0.14137  0.66682  0.56091  Biso   1.000  Ir
  Ir11     1.0000 0.85879  0.52530  0.22758  Biso   1.000  Ir
  Ir12     1.0000 0.99985  0.80788  0.89425  Biso   1.000  Ir
  Ir13     1.0000 0.84556  0.84101  0.89607  Biso   1.000  Ir
  Ir14     1.0000 0.49232  0.67122  0.56273  Biso   1.000  Ir
  Ir15     1.0000 0.66212  0.48777  0.22940  Biso   1.000  Ir
  Ir16     1.0000 0.84556  0.00455  0.39607  Biso   1.000  Ir
  Ir17     1.0000 0.49233  0.82111  0.06273  Biso   1.000  Ir
  Ir18     1.0000 0.66212  0.17434  0.72940  Biso   1.000  Ir
  Ir19     1.0000 0.80803  0.80788  0.39425  Biso   1.000  Ir
  Ir20     1.0000 0.52545  0.66682  0.06091  Biso   1.000  Ir
  Ir21     1.0000 0.66651  0.52530  0.72758  Biso   1.000  Ir
  Ir22     1.0000 0.80803  0.00015  0.89425  Biso   1.000  Ir
  Ir23     1.0000 0.52545  0.85863  0.56091  Biso   1.000  Ir
  Ir24     1.0000 0.66651  0.14121  0.22758  Biso   1.000  Ir
  Ir25     1.0000 0.51223  0.17434  0.22940  Biso   1.000  Ir
  Ir26     1.0000 0.15899  0.00455  0.89607  Biso   1.000  Ir
  Ir27     1.0000 0.32878  0.82111  0.56273  Biso   1.000  Ir
  Ir28     1.0000 0.51223  0.33788  0.72940  Biso   1.000  Ir
  Ir29     1.0000 0.15899  0.15444  0.39607  Biso   1.000  Ir
  Ir30     1.0000 0.32878  0.50767  0.06273  Biso   1.000  Ir
  Ir31     1.0000 0.47470  0.14121  0.72758  Biso   1.000  Ir
  Ir32     1.0000 0.19212  0.00015  0.39425  Biso   1.000  Ir
  Ir33     1.0000 0.33318  0.85863  0.06091  Biso   1.000  Ir
  Ir34     1.0000 0.47470  0.33348  0.22758  Biso   1.000  Ir
  Ir35     1.0000 0.19212  0.19197  0.89425  Biso   1.000  Ir
  Ir36     1.0000 0.33318  0.47455  0.56091  Biso   1.000  Ir
  O1       1.0000 0.17621  0.41558  0.87678  Biso   1.000  O
  O2       1.0000 0.91775  0.42730  0.54344  Biso   1.000  O
  O3       1.0000 0.90604  0.15712  0.21011  Biso   1.000  O
  O4       1.0000 0.17621  0.76063  0.37678  Biso   1.000  O
  O5       1.0000 0.91775  0.49046  0.04344  Biso   1.000  O
  O6       1.0000 0.90604  0.74891  0.71011  Biso   1.000  O
  O7       1.0000 0.08985  0.24844  0.19602  Biso   1.000  O
  O8       1.0000 0.08489  0.50807  0.86269  Biso   1.000  O
  O9       1.0000 0.82526  0.24349  0.52935  Biso   1.000  O
  O10      1.0000 0.08985  0.84140  0.69602  Biso   1.000  O
  O11      1.0000 0.08489  0.57682  0.36269  Biso   1.000  O
  O12      1.0000 0.82526  0.58178  0.02935  Biso   1.000  O
  O13      1.0000 0.23634  0.56935  0.17132  Biso   1.000  O
  O14      1.0000 0.76399  0.33366  0.83799  Biso   1.000  O
  O15      1.0000 0.99968  0.09699  0.50465  Biso   1.000  O
  O16      1.0000 0.23634  0.66699  0.67132  Biso   1.000  O
  O17      1.0000 0.76399  0.43033  0.33799  Biso   1.000  O
  O18      1.0000 0.99968  0.90268  0.00465  Biso   1.000  O
  O19      1.0000 0.00229  0.25675  0.64790  Biso   1.000  O
  O20      1.0000 0.07658  0.41220  0.31457  Biso   1.000  O
  O21      1.0000 0.92113  0.33104  0.98124  Biso   1.000  O
  O22      1.0000 0.00229  0.74554  0.14790  Biso   1.000  O
  O23      1.0000 0.07658  0.66438  0.81457  Biso   1.000  O
  O24      1.0000 0.92113  0.59008  0.48124  Biso   1.000  O
  O25      1.0000 0.84288  0.74891  0.21011  Biso   1.000  O
  O26      1.0000 0.58442  0.76063  0.87678  Biso   1.000  O
  O27      1.0000 0.57270  0.49046  0.54344  Biso   1.000  O
  O28      1.0000 0.84288  0.09396  0.71011  Biso   1.000  O
  O29      1.0000 0.58442  0.82379  0.37678  Biso   1.000  O
  O30      1.0000 0.57270  0.08225  0.04344  Biso   1.000  O
  O31      1.0000 0.75651  0.58178  0.52935  Biso   1.000  O
  O32      1.0000 0.75156  0.84140  0.19602  Biso   1.000  O
  O33      1.0000 0.49193  0.57682  0.86269  Biso   1.000  O
  O34      1.0000 0.75651  0.17474  0.02935  Biso   1.000  O
  O35      1.0000 0.75156  0.91015  0.69602  Biso   1.000  O
  O36      1.0000 0.49193  0.91511  0.36269  Biso   1.000  O
  O37      1.0000 0.90301  0.90268  0.50465  Biso   1.000  O
  O38      1.0000 0.43065  0.66699  0.17132  Biso   1.000  O
  O39      1.0000 0.66634  0.43033  0.83799  Biso   1.000  O
  O40      1.0000 0.90301  0.00032  0.00465  Biso   1.000  O
  O41      1.0000 0.43065  0.76366  0.67132  Biso   1.000  O
  O42      1.0000 0.66634  0.23601  0.33799  Biso   1.000  O
  O43      1.0000 0.66895  0.59008  0.98124  Biso   1.000  O
  O44      1.0000 0.74325  0.74554  0.64790  Biso   1.000  O
  O45      1.0000 0.58779  0.66438  0.31457  Biso   1.000  O
  O46      1.0000 0.66895  0.07887  0.48124  Biso   1.000  O
  O47      1.0000 0.74325  0.99771  0.14790  Biso   1.000  O
  O48      1.0000 0.58779  0.92342  0.81457  Biso   1.000  O
  O49      1.0000 0.50954  0.08225  0.54344  Biso   1.000  O
  O50      1.0000 0.25109  0.09396  0.21011  Biso   1.000  O
  O51      1.0000 0.23937  0.82379  0.87678  Biso   1.000  O
  O52      1.0000 0.50954  0.42730  0.04344  Biso   1.000  O
  O53      1.0000 0.25109  0.15712  0.71011  Biso   1.000  O
  O54      1.0000 0.23937  0.41558  0.37678  Biso   1.000  O
  O55      1.0000 0.42318  0.91511  0.86269  Biso   1.000  O
  O56      1.0000 0.41822  0.17474  0.52935  Biso   1.000  O
  O57      1.0000 0.15860  0.91015  0.19602  Biso   1.000  O
  O58      1.0000 0.42318  0.50807  0.36269  Biso   1.000  O
  O59      1.0000 0.41822  0.24349  0.02935  Biso   1.000  O
  O60      1.0000 0.15860  0.24844  0.69602  Biso   1.000  O
  O61      1.0000 0.56967  0.23601  0.83799  Biso   1.000  O
  O62      1.0000 0.09732  0.00032  0.50465  Biso   1.000  O
  O63      1.0000 0.33301  0.76366  0.17132  Biso   1.000  O
  O64      1.0000 0.56967  0.33366  0.33799  Biso   1.000  O
  O65      1.0000 0.09732  0.09699  0.00465  Biso   1.000  O
  O66      1.0000 0.33301  0.56935  0.67132  Biso   1.000  O
  O67      1.0000 0.33562  0.92342  0.31457  Biso   1.000  O
  O68      1.0000 0.40992  0.07887  0.98124  Biso   1.000  O
  O69      1.0000 0.25446  0.99771  0.64790  Biso   1.000  O
  O70      1.0000 0.33562  0.41220  0.81457  Biso   1.000  O
  O71      1.0000 0.40992  0.33104  0.48124  Biso   1.000  O
  O72      1.0000 0.25446  0.25675  0.14790  Biso   1.000  O
