data_image0
_cell_length_a       12.2096
_cell_length_b       12.2096
_cell_length_c       10.317
_cell_angle_alpha    90
_cell_angle_beta     90
_cell_angle_gamma    90

_symmetry_space_group_name_H-M    "P 1"
_symmetry_int_tables_number       1

loop_
  _symmetry_equiv_pos_as_xyz
  'x, y, z'

loop_
  _atom_site_label
  _atom_site_occupancy
  _atom_site_fract_x
  _atom_site_fract_y
  _atom_site_fract_z
  _atom_site_thermal_displace_type
  _atom_site_B_iso_or_equiv
  _atom_site_type_symbol
  O1       1.0000 0.18768  0.50039  0.24961  Biso   1.000  O
  O2       1.0000 0.81232  0.49961  0.24961  Biso   1.000  O
  O3       1.0000 0.00039  0.31232  0.25039  Biso   1.000  O
  O4       1.0000 0.99961  0.68768  0.25039  Biso   1.000  O
  O5       1.0000 0.68768  0.99961  0.24961  Biso   1.000  O
  O6       1.0000 0.31232  0.00039  0.24961  Biso   1.000  O
  O7       1.0000 0.50039  0.18768  0.25039  Biso   1.000  O
  O8       1.0000 0.49961  0.81232  0.25039  Biso   1.000  O
  O9       1.0000 0.85701  0.35701  0.50000  Biso   1.000  O
  O10      1.0000 0.64299  0.14299  0.00000  Biso   1.000  O
  O11      1.0000 0.35701  0.14299  0.50000  Biso   1.000  O
  O12      1.0000 0.14299  0.35701  0.00000  Biso   1.000  O
  O13      1.0000 0.24942  0.24942  0.75000  Biso   1.000  O
  O14      1.0000 0.25058  0.25058  0.25000  Biso   1.000  O
  O15      1.0000 0.24942  0.75058  0.25000  Biso   1.000  O
  O16      1.0000 0.75058  0.24942  0.25000  Biso   1.000  O
  O17      1.0000 0.68768  0.00039  0.74961  Biso   1.000  O
  O18      1.0000 0.31232  0.99961  0.74961  Biso   1.000  O
  O19      1.0000 0.50039  0.81232  0.75039  Biso   1.000  O
  O20      1.0000 0.49961  0.18768  0.75039  Biso   1.000  O
  O21      1.0000 0.18768  0.49961  0.74961  Biso   1.000  O
  O22      1.0000 0.81232  0.50039  0.74961  Biso   1.000  O
  O23      1.0000 0.00039  0.68768  0.75039  Biso   1.000  O
  O24      1.0000 0.99961  0.31232  0.75039  Biso   1.000  O
  O25      1.0000 0.35701  0.85701  0.00000  Biso   1.000  O
  O26      1.0000 0.14299  0.64299  0.50000  Biso   1.000  O
  O27      1.0000 0.85701  0.64299  0.00000  Biso   1.000  O
  O28      1.0000 0.64299  0.85701  0.50000  Biso   1.000  O
  O29      1.0000 0.74942  0.74942  0.25000  Biso   1.000  O
  O30      1.0000 0.75058  0.75058  0.75000  Biso   1.000  O
  O31      1.0000 0.74942  0.25058  0.75000  Biso   1.000  O
  O32      1.0000 0.25058  0.74942  0.75000  Biso   1.000  O
  Ir1      1.0000 0.85504  0.64449  0.18763  Biso   1.000  Ir
  Ir2      1.0000 0.14496  0.35551  0.18763  Biso   1.000  Ir
  Ir3      1.0000 0.14449  0.64496  0.31237  Biso   1.000  Ir
  Ir4      1.0000 0.85551  0.35504  0.31237  Biso   1.000  Ir
  Ir5      1.0000 0.35504  0.85551  0.18763  Biso   1.000  Ir
  Ir6      1.0000 0.64496  0.14449  0.18763  Biso   1.000  Ir
  Ir7      1.0000 0.64449  0.85504  0.31237  Biso   1.000  Ir
  Ir8      1.0000 0.35551  0.14496  0.31237  Biso   1.000  Ir
  Ir9      1.0000 0.35504  0.14449  0.68763  Biso   1.000  Ir
  Ir10     1.0000 0.64496  0.85551  0.68763  Biso   1.000  Ir
  Ir11     1.0000 0.64449  0.14496  0.81237  Biso   1.000  Ir
  Ir12     1.0000 0.35551  0.85504  0.81237  Biso   1.000  Ir
  Ir13     1.0000 0.85504  0.35551  0.68763  Biso   1.000  Ir
  Ir14     1.0000 0.14496  0.64449  0.68763  Biso   1.000  Ir
  Ir15     1.0000 0.14449  0.35504  0.81237  Biso   1.000  Ir
  Ir16     1.0000 0.85551  0.64496  0.81237  Biso   1.000  Ir
