data_image0
_cell_length_a       12.9591
_cell_length_b       18.2395
_cell_length_c       10.1368
_cell_angle_alpha    90
_cell_angle_beta     100.215
_cell_angle_gamma    90

_symmetry_space_group_name_H-M    "P 1"
_symmetry_int_tables_number       1

loop_
  _symmetry_equiv_pos_as_xyz
  'x, y, z'

loop_
  _atom_site_label
  _atom_site_occupancy
  _atom_site_fract_x
  _atom_site_fract_y
  _atom_site_fract_z
  _atom_site_thermal_displace_type
  _atom_site_B_iso_or_equiv
  _atom_site_type_symbol
  O1       1.0000 0.25000  0.25000  0.00000  Biso   1.000  O
  O2       1.0000 0.25000  0.75000  0.00000  Biso   1.000  O
  O3       1.0000 0.34083  0.66085  0.80648  Biso   1.000  O
  O4       1.0000 0.65917  0.66085  0.19352  Biso   1.000  O
  O5       1.0000 0.65917  0.33915  0.19352  Biso   1.000  O
  O6       1.0000 0.34083  0.33915  0.80648  Biso   1.000  O
  O7       1.0000 0.17982  0.87635  0.48686  Biso   1.000  O
  O8       1.0000 0.82018  0.87635  0.51314  Biso   1.000  O
  O9       1.0000 0.82018  0.12365  0.51314  Biso   1.000  O
  O10      1.0000 0.17982  0.12365  0.48686  Biso   1.000  O
  O11      1.0000 0.43907  0.62373  0.28130  Biso   1.000  O
  O12      1.0000 0.56093  0.62373  0.71870  Biso   1.000  O
  O13      1.0000 0.56093  0.37627  0.71870  Biso   1.000  O
  O14      1.0000 0.43907  0.37627  0.28130  Biso   1.000  O
  O15      1.0000 0.11975  0.00000  0.26673  Biso   1.000  O
  O16      1.0000 0.88025  0.00000  0.73327  Biso   1.000  O
  O17      1.0000 0.31825  0.83506  0.76726  Biso   1.000  O
  O18      1.0000 0.68175  0.83506  0.23273  Biso   1.000  O
  O19      1.0000 0.68175  0.16494  0.23273  Biso   1.000  O
  O20      1.0000 0.31825  0.16494  0.76726  Biso   1.000  O
  O21      1.0000 0.24349  0.00000  0.70741  Biso   1.000  O
  O22      1.0000 0.75650  0.00000  0.29259  Biso   1.000  O
  O23      1.0000 0.50000  0.77601  0.00000  Biso   1.000  O
  O24      1.0000 0.50000  0.22399  0.00000  Biso   1.000  O
  O25      1.0000 0.75000  0.75000  0.00000  Biso   1.000  O
  O26      1.0000 0.75000  0.25000  0.00000  Biso   1.000  O
  O27      1.0000 0.84083  0.16085  0.80648  Biso   1.000  O
  O28      1.0000 0.15917  0.16085  0.19352  Biso   1.000  O
  O29      1.0000 0.15917  0.83915  0.19352  Biso   1.000  O
  O30      1.0000 0.84083  0.83915  0.80648  Biso   1.000  O
  O31      1.0000 0.67982  0.37635  0.48686  Biso   1.000  O
  O32      1.0000 0.32018  0.37635  0.51314  Biso   1.000  O
  O33      1.0000 0.32018  0.62365  0.51314  Biso   1.000  O
  O34      1.0000 0.67982  0.62365  0.48686  Biso   1.000  O
  O35      1.0000 0.93907  0.12373  0.28130  Biso   1.000  O
  O36      1.0000 0.06093  0.12373  0.71870  Biso   1.000  O
  O37      1.0000 0.06093  0.87627  0.71870  Biso   1.000  O
  O38      1.0000 0.93907  0.87627  0.28130  Biso   1.000  O
  O39      1.0000 0.61975  0.50000  0.26673  Biso   1.000  O
  O40      1.0000 0.38025  0.50000  0.73327  Biso   1.000  O
  O41      1.0000 0.81825  0.33506  0.76726  Biso   1.000  O
  O42      1.0000 0.18175  0.33506  0.23273  Biso   1.000  O
  O43      1.0000 0.18175  0.66494  0.23273  Biso   1.000  O
  O44      1.0000 0.81825  0.66494  0.76726  Biso   1.000  O
  O45      1.0000 0.74350  0.50000  0.70741  Biso   1.000  O
  O46      1.0000 0.25651  0.50000  0.29259  Biso   1.000  O
  O47      1.0000 0.00000  0.27601  0.00000  Biso   1.000  O
  O48      1.0000 0.00000  0.72399  0.00000  Biso   1.000  O
  Ir1      1.0000 0.40140  0.60221  0.69119  Biso   1.000  Ir
  Ir2      1.0000 0.59860  0.60221  0.30881  Biso   1.000  Ir
  Ir3      1.0000 0.59860  0.39779  0.30881  Biso   1.000  Ir
  Ir4      1.0000 0.40140  0.39779  0.69119  Biso   1.000  Ir
  Ir5      1.0000 0.19958  0.89745  0.66997  Biso   1.000  Ir
  Ir6      1.0000 0.80042  0.89745  0.33003  Biso   1.000  Ir
  Ir7      1.0000 0.80042  0.10255  0.33003  Biso   1.000  Ir
  Ir8      1.0000 0.19958  0.10255  0.66997  Biso   1.000  Ir
  Ir9      1.0000 0.35220  0.75561  0.89330  Biso   1.000  Ir
  Ir10     1.0000 0.64780  0.75561  0.10670  Biso   1.000  Ir
  Ir11     1.0000 0.64780  0.24439  0.10670  Biso   1.000  Ir
  Ir12     1.0000 0.35220  0.24439  0.89330  Biso   1.000  Ir
  Ir13     1.0000 0.90140  0.10221  0.69119  Biso   1.000  Ir
  Ir14     1.0000 0.09860  0.10221  0.30881  Biso   1.000  Ir
  Ir15     1.0000 0.09860  0.89779  0.30881  Biso   1.000  Ir
  Ir16     1.0000 0.90140  0.89779  0.69119  Biso   1.000  Ir
  Ir17     1.0000 0.69958  0.39745  0.66997  Biso   1.000  Ir
  Ir18     1.0000 0.30042  0.39745  0.33003  Biso   1.000  Ir
  Ir19     1.0000 0.30042  0.60255  0.33003  Biso   1.000  Ir
  Ir20     1.0000 0.69958  0.60255  0.66997  Biso   1.000  Ir
  Ir21     1.0000 0.85220  0.25561  0.89330  Biso   1.000  Ir
  Ir22     1.0000 0.14780  0.25561  0.10670  Biso   1.000  Ir
  Ir23     1.0000 0.14780  0.74439  0.10670  Biso   1.000  Ir
  Ir24     1.0000 0.85220  0.74439  0.89330  Biso   1.000  Ir
