data_image0
_cell_length_a       11.3385
_cell_length_b       11.3385
_cell_length_c       6.97279
_cell_angle_alpha    90
_cell_angle_beta     90
_cell_angle_gamma    90

_symmetry_space_group_name_H-M    "P 1"
_symmetry_int_tables_number       1

loop_
  _symmetry_equiv_pos_as_xyz
  'x, y, z'

loop_
  _atom_site_label
  _atom_site_occupancy
  _atom_site_fract_x
  _atom_site_fract_y
  _atom_site_fract_z
  _atom_site_thermal_displace_type
  _atom_site_B_iso_or_equiv
  _atom_site_type_symbol
  O1       1.0000 0.00000  0.00000  0.50000  Biso   1.000  O
  O2       1.0000 0.50000  0.50000  0.50000  Biso   1.000  O
  O3       1.0000 0.91082  0.29257  0.60174  Biso   1.000  O
  O4       1.0000 0.08918  0.70743  0.60174  Biso   1.000  O
  O5       1.0000 0.20743  0.41082  0.60174  Biso   1.000  O
  O6       1.0000 0.79257  0.58918  0.60174  Biso   1.000  O
  O7       1.0000 0.58918  0.20743  0.39826  Biso   1.000  O
  O8       1.0000 0.41082  0.79257  0.39826  Biso   1.000  O
  O9       1.0000 0.29257  0.08918  0.39826  Biso   1.000  O
  O10      1.0000 0.70743  0.91082  0.39826  Biso   1.000  O
  O11      1.0000 0.59567  0.79019  0.87539  Biso   1.000  O
  O12      1.0000 0.40433  0.20980  0.87539  Biso   1.000  O
  O13      1.0000 0.70981  0.09567  0.87539  Biso   1.000  O
  O14      1.0000 0.29019  0.90433  0.87539  Biso   1.000  O
  O15      1.0000 0.90433  0.70981  0.12461  Biso   1.000  O
  O16      1.0000 0.09567  0.29019  0.12461  Biso   1.000  O
  O17      1.0000 0.79019  0.40433  0.12461  Biso   1.000  O
  O18      1.0000 0.20980  0.59567  0.12461  Biso   1.000  O
  O19      1.0000 0.00000  0.00000  0.00000  Biso   1.000  O
  O20      1.0000 0.50000  0.50000  0.00000  Biso   1.000  O
  Ir1      1.0000 0.00000  0.50000  0.35516  Biso   1.000  Ir
  Ir2      1.0000 0.50000  0.00000  0.64484  Biso   1.000  Ir
  Ir3      1.0000 0.66283  0.35201  0.74805  Biso   1.000  Ir
  Ir4      1.0000 0.33717  0.64799  0.74805  Biso   1.000  Ir
  Ir5      1.0000 0.14799  0.16283  0.74805  Biso   1.000  Ir
  Ir6      1.0000 0.85201  0.83717  0.74805  Biso   1.000  Ir
  Ir7      1.0000 0.83717  0.14799  0.25195  Biso   1.000  Ir
  Ir8      1.0000 0.16283  0.85201  0.25195  Biso   1.000  Ir
  Ir9      1.0000 0.35201  0.33717  0.25195  Biso   1.000  Ir
  Ir10     1.0000 0.64799  0.66283  0.25195  Biso   1.000  Ir
