data_image0
_cell_length_a       13.9285
_cell_length_b       4.632
_cell_length_c       12.117
_cell_angle_alpha    90
_cell_angle_beta     106.826
_cell_angle_gamma    90

_symmetry_space_group_name_H-M    "P 1"
_symmetry_int_tables_number       1

loop_
  _symmetry_equiv_pos_as_xyz
  'x, y, z'

loop_
  _atom_site_label
  _atom_site_occupancy
  _atom_site_fract_x
  _atom_site_fract_y
  _atom_site_fract_z
  _atom_site_thermal_displace_type
  _atom_site_B_iso_or_equiv
  _atom_site_type_symbol
  O1       1.0000 0.17526  0.66137  0.04264  Biso   1.000  O
  O2       1.0000 0.32474  0.16137  0.45736  Biso   1.000  O
  O3       1.0000 0.32474  0.83863  0.95736  Biso   1.000  O
  O4       1.0000 0.17526  0.33863  0.54264  Biso   1.000  O
  O5       1.0000 0.03628  0.16799  0.07933  Biso   1.000  O
  O6       1.0000 0.46372  0.66799  0.42067  Biso   1.000  O
  O7       1.0000 0.46372  0.33201  0.92067  Biso   1.000  O
  O8       1.0000 0.03628  0.83201  0.57933  Biso   1.000  O
  O9       1.0000 0.38908  0.77465  0.18095  Biso   1.000  O
  O10      1.0000 0.11092  0.27465  0.31905  Biso   1.000  O
  O11      1.0000 0.11092  0.72535  0.81905  Biso   1.000  O
  O12      1.0000 0.38908  0.22535  0.68095  Biso   1.000  O
  O13      1.0000 0.24470  0.26333  0.19035  Biso   1.000  O
  O14      1.0000 0.25530  0.76333  0.30965  Biso   1.000  O
  O15      1.0000 0.25530  0.23667  0.80965  Biso   1.000  O
  O16      1.0000 0.24470  0.73667  0.69035  Biso   1.000  O
  O17      1.0000 0.67526  0.16137  0.04264  Biso   1.000  O
  O18      1.0000 0.82474  0.66137  0.45736  Biso   1.000  O
  O19      1.0000 0.82474  0.33863  0.95736  Biso   1.000  O
  O20      1.0000 0.67526  0.83863  0.54264  Biso   1.000  O
  O21      1.0000 0.53628  0.66799  0.07933  Biso   1.000  O
  O22      1.0000 0.96372  0.16799  0.42067  Biso   1.000  O
  O23      1.0000 0.96372  0.83201  0.92067  Biso   1.000  O
  O24      1.0000 0.53628  0.33201  0.57933  Biso   1.000  O
  O25      1.0000 0.88908  0.27465  0.18095  Biso   1.000  O
  O26      1.0000 0.61092  0.77465  0.31905  Biso   1.000  O
  O27      1.0000 0.61092  0.22535  0.81905  Biso   1.000  O
  O28      1.0000 0.88908  0.72535  0.68095  Biso   1.000  O
  O29      1.0000 0.74470  0.76333  0.19035  Biso   1.000  O
  O30      1.0000 0.75530  0.26333  0.30965  Biso   1.000  O
  O31      1.0000 0.75530  0.73667  0.80965  Biso   1.000  O
  O32      1.0000 0.74470  0.23667  0.69035  Biso   1.000  O
  Ir1      1.0000 0.36929  0.46623  0.05712  Biso   1.000  Ir
  Ir2      1.0000 0.13071  0.96623  0.44288  Biso   1.000  Ir
  Ir3      1.0000 0.13071  0.03377  0.94288  Biso   1.000  Ir
  Ir4      1.0000 0.36929  0.53377  0.55712  Biso   1.000  Ir
  Ir5      1.0000 0.11028  0.55017  0.18479  Biso   1.000  Ir
  Ir6      1.0000 0.38972  0.05017  0.31521  Biso   1.000  Ir
  Ir7      1.0000 0.38972  0.94983  0.81521  Biso   1.000  Ir
  Ir8      1.0000 0.11028  0.44983  0.68479  Biso   1.000  Ir
  Ir9      1.0000 0.86929  0.96623  0.05712  Biso   1.000  Ir
  Ir10     1.0000 0.63071  0.46623  0.44288  Biso   1.000  Ir
  Ir11     1.0000 0.63071  0.53377  0.94288  Biso   1.000  Ir
  Ir12     1.0000 0.86929  0.03377  0.55712  Biso   1.000  Ir
  Ir13     1.0000 0.61028  0.05017  0.18479  Biso   1.000  Ir
  Ir14     1.0000 0.88972  0.55017  0.31521  Biso   1.000  Ir
  Ir15     1.0000 0.88972  0.44983  0.81521  Biso   1.000  Ir
  Ir16     1.0000 0.61028  0.94983  0.68479  Biso   1.000  Ir
