data_image0
_cell_length_a       19.9964
_cell_length_b       3.6045
_cell_length_c       5.67309
_cell_angle_alpha    90
_cell_angle_beta     90
_cell_angle_gamma    90

_symmetry_space_group_name_H-M    "P 1"
_symmetry_int_tables_number       1

loop_
  _symmetry_equiv_pos_as_xyz
  'x, y, z'

loop_
  _atom_site_label
  _atom_site_occupancy
  _atom_site_fract_x
  _atom_site_fract_y
  _atom_site_fract_z
  _atom_site_thermal_displace_type
  _atom_site_B_iso_or_equiv
  _atom_site_type_symbol
  Ir1      1.0000 0.69583  0.25000  0.94099  Biso   1.000  Ir
  Ir2      1.0000 0.80417  0.75000  0.44099  Biso   1.000  Ir
  Ir3      1.0000 0.30417  0.75000  0.05901  Biso   1.000  Ir
  Ir4      1.0000 0.19582  0.25000  0.55901  Biso   1.000  Ir
  Ir5      1.0000 0.92263  0.25000  0.92721  Biso   1.000  Ir
  Ir6      1.0000 0.57737  0.75000  0.42721  Biso   1.000  Ir
  Ir7      1.0000 0.07737  0.75000  0.07279  Biso   1.000  Ir
  Ir8      1.0000 0.42263  0.25000  0.57279  Biso   1.000  Ir
  O1       1.0000 0.37683  0.25000  0.95411  Biso   1.000  O
  O2       1.0000 0.12317  0.75000  0.45411  Biso   1.000  O
  O3       1.0000 0.62317  0.75000  0.04589  Biso   1.000  O
  O4       1.0000 0.87683  0.25000  0.54589  Biso   1.000  O
  O5       1.0000 0.14057  0.25000  0.93563  Biso   1.000  O
  O6       1.0000 0.35943  0.75000  0.43563  Biso   1.000  O
  O7       1.0000 0.85943  0.75000  0.06437  Biso   1.000  O
  O8       1.0000 0.64057  0.25000  0.56437  Biso   1.000  O
  O9       1.0000 0.73700  0.25000  0.32097  Biso   1.000  O
  O10      1.0000 0.76300  0.75000  0.82097  Biso   1.000  O
  O11      1.0000 0.26300  0.75000  0.67903  Biso   1.000  O
  O12      1.0000 0.23700  0.25000  0.17903  Biso   1.000  O
  O13      1.0000 0.50885  0.25000  0.27713  Biso   1.000  O
  O14      1.0000 0.99115  0.75000  0.77713  Biso   1.000  O
  O15      1.0000 0.49115  0.75000  0.72287  Biso   1.000  O
  O16      1.0000 0.00885  0.25000  0.22287  Biso   1.000  O
