data_image0
_cell_length_a       5.57371
_cell_length_b       6.76955
_cell_length_c       7.19212
_cell_angle_alpha    67.0407
_cell_angle_beta     89.9226
_cell_angle_gamma    89.9631

_symmetry_space_group_name_H-M    "P 1"
_symmetry_int_tables_number       1

loop_
  _symmetry_equiv_pos_as_xyz
  'x, y, z'

loop_
  _atom_site_label
  _atom_site_occupancy
  _atom_site_fract_x
  _atom_site_fract_y
  _atom_site_fract_z
  _atom_site_thermal_displace_type
  _atom_site_B_iso_or_equiv
  _atom_site_type_symbol
  O1       1.0000 0.25654  0.32782  0.66169  Biso   1.000  O
  O2       1.0000 0.74346  0.67218  0.33831  Biso   1.000  O
  O3       1.0000 0.25654  0.66171  0.01048  Biso   1.000  O
  O4       1.0000 0.74346  0.33829  0.98952  Biso   1.000  O
  O5       1.0000 0.25655  0.01051  0.32780  Biso   1.000  O
  O6       1.0000 0.74345  0.98949  0.67220  Biso   1.000  O
  Ir1      1.0000 0.00000  0.00000  0.00000  Biso   1.000  Ir
  Ir2      1.0000 0.01820  0.66667  0.66665  Biso   1.000  Ir
  Ir3      1.0000 0.98180  0.33333  0.33335  Biso   1.000  Ir
