data_image0
_cell_length_a       24.8546
_cell_length_b       8.72354
_cell_length_c       11.9205
_cell_angle_alpha    90
_cell_angle_beta     90
_cell_angle_gamma    90

_symmetry_space_group_name_H-M    "P 1"
_symmetry_int_tables_number       1

loop_
  _symmetry_equiv_pos_as_xyz
  'x, y, z'

loop_
  _atom_site_label
  _atom_site_occupancy
  _atom_site_fract_x
  _atom_site_fract_y
  _atom_site_fract_z
  _atom_site_thermal_displace_type
  _atom_site_B_iso_or_equiv
  _atom_site_type_symbol
  O1       1.0000 0.20495  0.50000  0.00000  Biso   1.000  O
  O2       1.0000 0.29505  0.50000  0.50000  Biso   1.000  O
  O3       1.0000 0.79505  0.50000  0.00000  Biso   1.000  O
  O4       1.0000 0.70495  0.50000  0.50000  Biso   1.000  O
  O5       1.0000 0.12434  0.60372  0.79866  Biso   1.000  O
  O6       1.0000 0.37566  0.39628  0.29866  Biso   1.000  O
  O7       1.0000 0.37566  0.60372  0.70134  Biso   1.000  O
  O8       1.0000 0.12434  0.39628  0.20134  Biso   1.000  O
  O9       1.0000 0.87566  0.39628  0.20134  Biso   1.000  O
  O10      1.0000 0.62434  0.60372  0.70134  Biso   1.000  O
  O11      1.0000 0.62434  0.39628  0.29866  Biso   1.000  O
  O12      1.0000 0.87566  0.60372  0.79866  Biso   1.000  O
  O13      1.0000 0.17452  0.00000  0.00000  Biso   1.000  O
  O14      1.0000 0.32548  0.00000  0.50000  Biso   1.000  O
  O15      1.0000 0.82548  0.00000  0.00000  Biso   1.000  O
  O16      1.0000 0.67452  0.00000  0.50000  Biso   1.000  O
  O17      1.0000 0.17473  0.73685  0.19793  Biso   1.000  O
  O18      1.0000 0.32527  0.26315  0.69793  Biso   1.000  O
  O19      1.0000 0.32527  0.73685  0.30207  Biso   1.000  O
  O20      1.0000 0.17473  0.26315  0.80207  Biso   1.000  O
  O21      1.0000 0.82527  0.26315  0.80207  Biso   1.000  O
  O22      1.0000 0.67473  0.73685  0.30207  Biso   1.000  O
  O23      1.0000 0.67473  0.26315  0.69793  Biso   1.000  O
  O24      1.0000 0.82527  0.73685  0.19793  Biso   1.000  O
  O25      1.0000 0.25000  0.44558  0.25000  Biso   1.000  O
  O26      1.0000 0.25000  0.55442  0.75000  Biso   1.000  O
  O27      1.0000 0.75000  0.55442  0.75000  Biso   1.000  O
  O28      1.0000 0.75000  0.44558  0.25000  Biso   1.000  O
  O29      1.0000 0.09383  0.96455  0.79345  Biso   1.000  O
  O30      1.0000 0.40618  0.03545  0.29345  Biso   1.000  O
  O31      1.0000 0.40618  0.96455  0.70654  Biso   1.000  O
  O32      1.0000 0.09383  0.03545  0.20654  Biso   1.000  O
  O33      1.0000 0.90617  0.03545  0.20654  Biso   1.000  O
  O34      1.0000 0.59383  0.96455  0.70654  Biso   1.000  O
  O35      1.0000 0.59383  0.03545  0.29345  Biso   1.000  O
  O36      1.0000 0.90617  0.96455  0.79345  Biso   1.000  O
  O37      1.0000 0.07733  0.23473  0.97896  Biso   1.000  O
  O38      1.0000 0.42267  0.76527  0.47896  Biso   1.000  O
  O39      1.0000 0.42267  0.23473  0.52104  Biso   1.000  O
  O40      1.0000 0.07733  0.76527  0.02104  Biso   1.000  O
  O41      1.0000 0.92267  0.76527  0.02104  Biso   1.000  O
  O42      1.0000 0.57733  0.23473  0.52104  Biso   1.000  O
  O43      1.0000 0.57733  0.76527  0.47896  Biso   1.000  O
  O44      1.0000 0.92267  0.23473  0.97896  Biso   1.000  O
  O45      1.0000 0.00000  0.29220  0.19214  Biso   1.000  O
  O46      1.0000 0.50000  0.70780  0.69214  Biso   1.000  O
  O47      1.0000 0.50000  0.29220  0.30786  Biso   1.000  O
  O48      1.0000 0.00000  0.70780  0.80786  Biso   1.000  O
  Ir1      1.0000 0.18849  0.51765  0.16136  Biso   1.000  Ir
  Ir2      1.0000 0.31151  0.48235  0.66136  Biso   1.000  Ir
  Ir3      1.0000 0.31151  0.51765  0.33864  Biso   1.000  Ir
  Ir4      1.0000 0.18849  0.48235  0.83864  Biso   1.000  Ir
  Ir5      1.0000 0.81151  0.48235  0.83864  Biso   1.000  Ir
  Ir6      1.0000 0.68849  0.51765  0.33864  Biso   1.000  Ir
  Ir7      1.0000 0.68849  0.48235  0.66136  Biso   1.000  Ir
  Ir8      1.0000 0.81151  0.51765  0.16136  Biso   1.000  Ir
  Ir9      1.0000 0.07372  0.24112  0.14609  Biso   1.000  Ir
  Ir10     1.0000 0.42628  0.75888  0.64609  Biso   1.000  Ir
  Ir11     1.0000 0.42628  0.24112  0.35391  Biso   1.000  Ir
  Ir12     1.0000 0.07372  0.75888  0.85391  Biso   1.000  Ir
  Ir13     1.0000 0.92629  0.75888  0.85391  Biso   1.000  Ir
  Ir14     1.0000 0.57372  0.24112  0.35391  Biso   1.000  Ir
  Ir15     1.0000 0.57372  0.75888  0.64609  Biso   1.000  Ir
  Ir16     1.0000 0.92629  0.24112  0.14609  Biso   1.000  Ir
  Ir17     1.0000 0.13096  0.88150  0.11196  Biso   1.000  Ir
  Ir18     1.0000 0.36904  0.11850  0.61196  Biso   1.000  Ir
  Ir19     1.0000 0.36904  0.88150  0.38804  Biso   1.000  Ir
  Ir20     1.0000 0.13096  0.11850  0.88804  Biso   1.000  Ir
  Ir21     1.0000 0.86904  0.11850  0.88804  Biso   1.000  Ir
  Ir22     1.0000 0.63096  0.88150  0.38804  Biso   1.000  Ir
  Ir23     1.0000 0.63096  0.11850  0.61196  Biso   1.000  Ir
  Ir24     1.0000 0.86904  0.88150  0.11196  Biso   1.000  Ir
