data_image0
_cell_length_a       21.5345
_cell_length_b       21.5358
_cell_length_c       5.90019
_cell_angle_alpha    90
_cell_angle_beta     90
_cell_angle_gamma    90

_symmetry_space_group_name_H-M    "P 1"
_symmetry_int_tables_number       1

loop_
  _symmetry_equiv_pos_as_xyz
  'x, y, z'

loop_
  _atom_site_label
  _atom_site_occupancy
  _atom_site_fract_x
  _atom_site_fract_y
  _atom_site_fract_z
  _atom_site_thermal_displace_type
  _atom_site_B_iso_or_equiv
  _atom_site_type_symbol
  O1       1.0000 0.00000  0.41896  0.74882  Biso   1.000  O
  O2       1.0000 0.00000  0.08104  0.24882  Biso   1.000  O
  O3       1.0000 0.00000  0.27610  0.98023  Biso   1.000  O
  O4       1.0000 0.00000  0.22390  0.48023  Biso   1.000  O
  O5       1.0000 0.42344  0.34891  0.86715  Biso   1.000  O
  O6       1.0000 0.07656  0.15109  0.86715  Biso   1.000  O
  O7       1.0000 0.42344  0.15109  0.36715  Biso   1.000  O
  O8       1.0000 0.07656  0.34891  0.36715  Biso   1.000  O
  O9       1.0000 0.41887  0.50000  0.89915  Biso   1.000  O
  O10      1.0000 0.08113  0.50000  0.39915  Biso   1.000  O
  O11      1.0000 0.34891  0.42339  0.28075  Biso   1.000  O
  O12      1.0000 0.15109  0.07661  0.28075  Biso   1.000  O
  O13      1.0000 0.34891  0.07661  0.78075  Biso   1.000  O
  O14      1.0000 0.15109  0.42339  0.78075  Biso   1.000  O
  O15      1.0000 0.27609  0.50000  0.66725  Biso   1.000  O
  O16      1.0000 0.22391  0.50000  0.16725  Biso   1.000  O
  O17      1.0000 0.00000  0.91896  0.24882  Biso   1.000  O
  O18      1.0000 0.00000  0.58104  0.74882  Biso   1.000  O
  O19      1.0000 0.00000  0.77610  0.48023  Biso   1.000  O
  O20      1.0000 0.00000  0.72390  0.98023  Biso   1.000  O
  O21      1.0000 0.42344  0.84891  0.36715  Biso   1.000  O
  O22      1.0000 0.07656  0.65109  0.36715  Biso   1.000  O
  O23      1.0000 0.42344  0.65109  0.86715  Biso   1.000  O
  O24      1.0000 0.07656  0.84891  0.86715  Biso   1.000  O
  O25      1.0000 0.41887  0.00000  0.39915  Biso   1.000  O
  O26      1.0000 0.08113  0.00000  0.89915  Biso   1.000  O
  O27      1.0000 0.34891  0.92339  0.78075  Biso   1.000  O
  O28      1.0000 0.15109  0.57661  0.78075  Biso   1.000  O
  O29      1.0000 0.34891  0.57661  0.28075  Biso   1.000  O
  O30      1.0000 0.15109  0.92339  0.28075  Biso   1.000  O
  O31      1.0000 0.27609  0.00000  0.16725  Biso   1.000  O
  O32      1.0000 0.22391  0.00000  0.66725  Biso   1.000  O
  O33      1.0000 0.50000  0.41896  0.24882  Biso   1.000  O
  O34      1.0000 0.50000  0.08104  0.74882  Biso   1.000  O
  O35      1.0000 0.50000  0.27610  0.48023  Biso   1.000  O
  O36      1.0000 0.50000  0.22390  0.98023  Biso   1.000  O
  O37      1.0000 0.92344  0.34891  0.36715  Biso   1.000  O
  O38      1.0000 0.57656  0.15109  0.36715  Biso   1.000  O
  O39      1.0000 0.92344  0.15109  0.86715  Biso   1.000  O
  O40      1.0000 0.57656  0.34891  0.86715  Biso   1.000  O
  O41      1.0000 0.91887  0.50000  0.39915  Biso   1.000  O
  O42      1.0000 0.58113  0.50000  0.89915  Biso   1.000  O
  O43      1.0000 0.84891  0.42339  0.78075  Biso   1.000  O
  O44      1.0000 0.65109  0.07661  0.78075  Biso   1.000  O
  O45      1.0000 0.84891  0.07661  0.28075  Biso   1.000  O
  O46      1.0000 0.65109  0.42339  0.28075  Biso   1.000  O
  O47      1.0000 0.77609  0.50000  0.16725  Biso   1.000  O
  O48      1.0000 0.72391  0.50000  0.66725  Biso   1.000  O
  O49      1.0000 0.50000  0.91896  0.74882  Biso   1.000  O
  O50      1.0000 0.50000  0.58104  0.24882  Biso   1.000  O
  O51      1.0000 0.50000  0.77610  0.98023  Biso   1.000  O
  O52      1.0000 0.50000  0.72390  0.48023  Biso   1.000  O
  O53      1.0000 0.92344  0.84891  0.86715  Biso   1.000  O
  O54      1.0000 0.57656  0.65109  0.86715  Biso   1.000  O
  O55      1.0000 0.92344  0.65109  0.36715  Biso   1.000  O
  O56      1.0000 0.57656  0.84891  0.36715  Biso   1.000  O
  O57      1.0000 0.91887  0.00000  0.89915  Biso   1.000  O
  O58      1.0000 0.58113  0.00000  0.39915  Biso   1.000  O
  O59      1.0000 0.84891  0.92339  0.28075  Biso   1.000  O
  O60      1.0000 0.65109  0.57661  0.28075  Biso   1.000  O
  O61      1.0000 0.84891  0.57661  0.78075  Biso   1.000  O
  O62      1.0000 0.65109  0.92339  0.78075  Biso   1.000  O
  O63      1.0000 0.77609  0.00000  0.66725  Biso   1.000  O
  O64      1.0000 0.72391  0.00000  0.16725  Biso   1.000  O
  Ir1      1.0000 0.00000  0.30040  0.29889  Biso   1.000  Ir
  Ir2      1.0000 0.00000  0.19960  0.79889  Biso   1.000  Ir
  Ir3      1.0000 0.42084  0.42084  0.07399  Biso   1.000  Ir
  Ir4      1.0000 0.07916  0.07916  0.07399  Biso   1.000  Ir
  Ir5      1.0000 0.42084  0.07916  0.57399  Biso   1.000  Ir
  Ir6      1.0000 0.07916  0.42084  0.57399  Biso   1.000  Ir
  Ir7      1.0000 0.30039  0.50000  0.34888  Biso   1.000  Ir
  Ir8      1.0000 0.19961  0.50000  0.84888  Biso   1.000  Ir
  Ir9      1.0000 0.00000  0.80040  0.79889  Biso   1.000  Ir
  Ir10     1.0000 0.00000  0.69960  0.29889  Biso   1.000  Ir
  Ir11     1.0000 0.42084  0.92084  0.57399  Biso   1.000  Ir
  Ir12     1.0000 0.07916  0.57916  0.57399  Biso   1.000  Ir
  Ir13     1.0000 0.42084  0.57916  0.07399  Biso   1.000  Ir
  Ir14     1.0000 0.07916  0.92084  0.07399  Biso   1.000  Ir
  Ir15     1.0000 0.30039  0.00000  0.84888  Biso   1.000  Ir
  Ir16     1.0000 0.19961  0.00000  0.34888  Biso   1.000  Ir
  Ir17     1.0000 0.50000  0.30040  0.79889  Biso   1.000  Ir
  Ir18     1.0000 0.50000  0.19960  0.29889  Biso   1.000  Ir
  Ir19     1.0000 0.92084  0.42084  0.57399  Biso   1.000  Ir
  Ir20     1.0000 0.57916  0.07916  0.57399  Biso   1.000  Ir
  Ir21     1.0000 0.92084  0.07916  0.07399  Biso   1.000  Ir
  Ir22     1.0000 0.57916  0.42084  0.07399  Biso   1.000  Ir
  Ir23     1.0000 0.80039  0.50000  0.84888  Biso   1.000  Ir
  Ir24     1.0000 0.69961  0.50000  0.34888  Biso   1.000  Ir
  Ir25     1.0000 0.50000  0.80040  0.29889  Biso   1.000  Ir
  Ir26     1.0000 0.50000  0.69960  0.79889  Biso   1.000  Ir
  Ir27     1.0000 0.92084  0.92084  0.07399  Biso   1.000  Ir
  Ir28     1.0000 0.57916  0.57916  0.07399  Biso   1.000  Ir
  Ir29     1.0000 0.92084  0.57916  0.57399  Biso   1.000  Ir
  Ir30     1.0000 0.57916  0.92084  0.57399  Biso   1.000  Ir
  Ir31     1.0000 0.80039  0.00000  0.34888  Biso   1.000  Ir
  Ir32     1.0000 0.69961  0.00000  0.84888  Biso   1.000  Ir
