data_image0
_cell_length_a       10.1383
_cell_length_b       10.7919
_cell_length_c       6.12796
_cell_angle_alpha    90
_cell_angle_beta     90
_cell_angle_gamma    90

_symmetry_space_group_name_H-M    "P 1"
_symmetry_int_tables_number       1

loop_
  _symmetry_equiv_pos_as_xyz
  'x, y, z'

loop_
  _atom_site_label
  _atom_site_occupancy
  _atom_site_fract_x
  _atom_site_fract_y
  _atom_site_fract_z
  _atom_site_thermal_displace_type
  _atom_site_B_iso_or_equiv
  _atom_site_type_symbol
  O1       1.0000 0.00000  0.00000  0.59313  Biso   1.000  O
  O2       1.0000 0.50000  0.00000  0.59313  Biso   1.000  O
  O3       1.0000 0.54064  0.27970  0.75104  Biso   1.000  O
  O4       1.0000 0.45936  0.22030  0.25105  Biso   1.000  O
  O5       1.0000 0.04064  0.22030  0.25105  Biso   1.000  O
  O6       1.0000 0.95936  0.27970  0.75104  Biso   1.000  O
  O7       1.0000 0.75000  0.16021  0.42277  Biso   1.000  O
  O8       1.0000 0.25000  0.33979  0.92277  Biso   1.000  O
  O9       1.0000 0.00000  0.50000  0.09313  Biso   1.000  O
  O10      1.0000 0.50000  0.50000  0.09313  Biso   1.000  O
  O11      1.0000 0.54064  0.77970  0.25105  Biso   1.000  O
  O12      1.0000 0.45936  0.72030  0.75104  Biso   1.000  O
  O13      1.0000 0.04064  0.72030  0.75104  Biso   1.000  O
  O14      1.0000 0.95936  0.77970  0.25105  Biso   1.000  O
  O15      1.0000 0.75000  0.66021  0.92277  Biso   1.000  O
  O16      1.0000 0.25000  0.83979  0.42277  Biso   1.000  O
  Ir1      1.0000 0.93740  0.16513  0.50450  Biso   1.000  Ir
  Ir2      1.0000 0.06260  0.33487  0.00450  Biso   1.000  Ir
  Ir3      1.0000 0.43740  0.33487  0.00450  Biso   1.000  Ir
  Ir4      1.0000 0.56260  0.16513  0.50450  Biso   1.000  Ir
  Ir5      1.0000 0.93740  0.66513  0.00450  Biso   1.000  Ir
  Ir6      1.0000 0.06260  0.83487  0.50450  Biso   1.000  Ir
  Ir7      1.0000 0.43740  0.83487  0.50450  Biso   1.000  Ir
  Ir8      1.0000 0.56260  0.66513  0.00450  Biso   1.000  Ir
