data_image0
_cell_length_a       4.84575
_cell_length_b       4.84575
_cell_length_c       30.2715
_cell_angle_alpha    90
_cell_angle_beta     90
_cell_angle_gamma    120

_symmetry_space_group_name_H-M    "P 1"
_symmetry_int_tables_number       1

loop_
  _symmetry_equiv_pos_as_xyz
  'x, y, z'

loop_
  _atom_site_label
  _atom_site_occupancy
  _atom_site_fract_x
  _atom_site_fract_y
  _atom_site_fract_z
  _atom_site_thermal_displace_type
  _atom_site_B_iso_or_equiv
  _atom_site_type_symbol
  Ir1      1.0000 0.33333  0.66667  0.58654  Biso   1.000  Ir
  Ir2      1.0000 0.66667  0.33333  0.41346  Biso   1.000  Ir
  Ir3      1.0000 0.00000  0.00000  0.91987  Biso   1.000  Ir
  Ir4      1.0000 0.33333  0.66667  0.74679  Biso   1.000  Ir
  Ir5      1.0000 0.66667  0.33333  0.25321  Biso   1.000  Ir
  Ir6      1.0000 0.00000  0.00000  0.08013  Biso   1.000  Ir
  O1       1.0000 0.00000  0.00000  0.65293  Biso   1.000  O
  O2       1.0000 0.00000  0.00000  0.34707  Biso   1.000  O
  O3       1.0000 0.66667  0.33333  0.51599  Biso   1.000  O
  O4       1.0000 0.33333  0.66667  0.48401  Biso   1.000  O
  O5       1.0000 0.66667  0.33333  0.98627  Biso   1.000  O
  O6       1.0000 0.66667  0.33333  0.68040  Biso   1.000  O
  O7       1.0000 0.33333  0.66667  0.84932  Biso   1.000  O
  O8       1.0000 0.00000  0.00000  0.81734  Biso   1.000  O
  O9       1.0000 0.33333  0.66667  0.31960  Biso   1.000  O
  O10      1.0000 0.33333  0.66667  0.01373  Biso   1.000  O
  O11      1.0000 0.00000  0.00000  0.18266  Biso   1.000  O
  O12      1.0000 0.66667  0.33333  0.15068  Biso   1.000  O
