data_image0
_cell_length_a       4.24438
_cell_length_b       7.23674
_cell_length_c       7.24107
_cell_angle_alpha    89.9284
_cell_angle_beta     89.6522
_cell_angle_gamma    89.5775

_symmetry_space_group_name_H-M    "P 1"
_symmetry_int_tables_number       1

loop_
  _symmetry_equiv_pos_as_xyz
  'x, y, z'

loop_
  _atom_site_label
  _atom_site_occupancy
  _atom_site_fract_x
  _atom_site_fract_y
  _atom_site_fract_z
  _atom_site_thermal_displace_type
  _atom_site_B_iso_or_equiv
  _atom_site_type_symbol
  O1       1.0000 0.50064  0.20540  0.20541  Biso   1.000  O
  O2       1.0000 0.49937  0.79459  0.79459  Biso   1.000  O
  O3       1.0000 0.99991  0.29463  0.70534  Biso   1.000  O
  O4       1.0000 0.00009  0.70536  0.29466  Biso   1.000  O
  Ir1      1.0000 0.50000  0.50000  0.50000  Biso   1.000  Ir
  Ir2      1.0000 0.00000  0.00000  0.00000  Biso   1.000  Ir
