data_image0
_cell_length_a       8.20841
_cell_length_b       9.69254
_cell_length_c       6.37538
_cell_angle_alpha    90
_cell_angle_beta     96.3381
_cell_angle_gamma    90

_symmetry_space_group_name_H-M    "P 1"
_symmetry_int_tables_number       1

loop_
  _symmetry_equiv_pos_as_xyz
  'x, y, z'

loop_
  _atom_site_label
  _atom_site_occupancy
  _atom_site_fract_x
  _atom_site_fract_y
  _atom_site_fract_z
  _atom_site_thermal_displace_type
  _atom_site_B_iso_or_equiv
  _atom_site_type_symbol
  O1       1.0000 0.52192  0.94916  0.88898  Biso   1.000  O
  O2       1.0000 0.52192  0.05084  0.38898  Biso   1.000  O
  O3       1.0000 0.87492  0.99113  0.71835  Biso   1.000  O
  O4       1.0000 0.87492  0.00886  0.21835  Biso   1.000  O
  O5       1.0000 0.20376  0.92437  0.53217  Biso   1.000  O
  O6       1.0000 0.20376  0.07563  0.03217  Biso   1.000  O
  O7       1.0000 0.54907  0.74119  0.52349  Biso   1.000  O
  O8       1.0000 0.54907  0.25881  0.02349  Biso   1.000  O
  O9       1.0000 0.02192  0.44916  0.88898  Biso   1.000  O
  O10      1.0000 0.02192  0.55084  0.38898  Biso   1.000  O
  O11      1.0000 0.37492  0.49113  0.71835  Biso   1.000  O
  O12      1.0000 0.37492  0.50886  0.21835  Biso   1.000  O
  O13      1.0000 0.70376  0.42437  0.53217  Biso   1.000  O
  O14      1.0000 0.70376  0.57563  0.03217  Biso   1.000  O
  O15      1.0000 0.04907  0.24119  0.52349  Biso   1.000  O
  O16      1.0000 0.04907  0.75881  0.02349  Biso   1.000  O
  Ir1      1.0000 0.50215  0.45659  0.99933  Biso   1.000  Ir
  Ir2      1.0000 0.50215  0.54341  0.49933  Biso   1.000  Ir
  Ir3      1.0000 0.45304  0.91821  0.58814  Biso   1.000  Ir
  Ir4      1.0000 0.45304  0.08179  0.08814  Biso   1.000  Ir
  Ir5      1.0000 0.00215  0.95659  0.99933  Biso   1.000  Ir
  Ir6      1.0000 0.00215  0.04341  0.49933  Biso   1.000  Ir
  Ir7      1.0000 0.95304  0.41821  0.58814  Biso   1.000  Ir
  Ir8      1.0000 0.95304  0.58179  0.08814  Biso   1.000  Ir
