data_image0
_cell_length_a       10.2847
_cell_length_b       30.3445
_cell_length_c       35.2936
_cell_angle_alpha    90
_cell_angle_beta     90
_cell_angle_gamma    90

_symmetry_space_group_name_H-M    "P 1"
_symmetry_int_tables_number       1

loop_
  _symmetry_equiv_pos_as_xyz
  'x, y, z'

loop_
  _atom_site_label
  _atom_site_occupancy
  _atom_site_fract_x
  _atom_site_fract_y
  _atom_site_fract_z
  _atom_site_thermal_displace_type
  _atom_site_B_iso_or_equiv
  _atom_site_type_symbol
  O1       1.0000 0.75074  0.16688  0.31035  Biso   1.000  O
  O2       1.0000 0.24926  0.33312  0.81035  Biso   1.000  O
  O3       1.0000 0.74926  0.16688  0.18965  Biso   1.000  O
  O4       1.0000 0.25074  0.33312  0.68965  Biso   1.000  O
  O5       1.0000 0.74926  0.33312  0.68965  Biso   1.000  O
  O6       1.0000 0.25074  0.16688  0.18965  Biso   1.000  O
  O7       1.0000 0.75074  0.33312  0.81035  Biso   1.000  O
  O8       1.0000 0.24926  0.16688  0.31035  Biso   1.000  O
  O9       1.0000 0.76425  0.26729  0.16138  Biso   1.000  O
  O10      1.0000 0.23575  0.23271  0.66138  Biso   1.000  O
  O11      1.0000 0.73575  0.26729  0.33862  Biso   1.000  O
  O12      1.0000 0.26425  0.23271  0.83862  Biso   1.000  O
  O13      1.0000 0.73575  0.23271  0.83862  Biso   1.000  O
  O14      1.0000 0.26425  0.26729  0.33862  Biso   1.000  O
  O15      1.0000 0.76425  0.23271  0.66138  Biso   1.000  O
  O16      1.0000 0.23575  0.26729  0.16138  Biso   1.000  O
  O17      1.0000 0.20924  0.11508  0.41791  Biso   1.000  O
  O18      1.0000 0.79076  0.38492  0.91791  Biso   1.000  O
  O19      1.0000 0.29076  0.11508  0.08209  Biso   1.000  O
  O20      1.0000 0.70924  0.38492  0.58209  Biso   1.000  O
  O21      1.0000 0.29076  0.38492  0.58209  Biso   1.000  O
  O22      1.0000 0.70924  0.11508  0.08209  Biso   1.000  O
  O23      1.0000 0.20924  0.38492  0.91791  Biso   1.000  O
  O24      1.0000 0.79076  0.11508  0.41791  Biso   1.000  O
  O25      1.0000 0.21118  0.48749  0.58371  Biso   1.000  O
  O26      1.0000 0.78882  0.01251  0.08371  Biso   1.000  O
  O27      1.0000 0.28882  0.48749  0.91629  Biso   1.000  O
  O28      1.0000 0.71118  0.01251  0.41629  Biso   1.000  O
  O29      1.0000 0.28882  0.01251  0.41629  Biso   1.000  O
  O30      1.0000 0.71118  0.48749  0.91629  Biso   1.000  O
  O31      1.0000 0.21118  0.01251  0.08371  Biso   1.000  O
  O32      1.0000 0.78882  0.48749  0.58371  Biso   1.000  O
  O33      1.0000 0.32643  0.00000  0.00000  Biso   1.000  O
  O34      1.0000 0.17358  0.00000  0.50000  Biso   1.000  O
  O35      1.0000 0.67358  0.00000  0.00000  Biso   1.000  O
  O36      1.0000 0.82642  0.00000  0.50000  Biso   1.000  O
  O37      1.0000 0.50000  0.08661  0.39601  Biso   1.000  O
  O38      1.0000 0.50000  0.41339  0.89601  Biso   1.000  O
  O39      1.0000 0.00000  0.08661  0.10399  Biso   1.000  O
  O40      1.0000 0.00000  0.41339  0.60399  Biso   1.000  O
  O41      1.0000 0.79756  0.21676  0.08148  Biso   1.000  O
  O42      1.0000 0.20244  0.28324  0.58148  Biso   1.000  O
  O43      1.0000 0.70244  0.21676  0.41852  Biso   1.000  O
  O44      1.0000 0.29756  0.28324  0.91852  Biso   1.000  O
  O45      1.0000 0.70244  0.28324  0.91852  Biso   1.000  O
  O46      1.0000 0.29756  0.21676  0.41852  Biso   1.000  O
  O47      1.0000 0.79756  0.28324  0.58148  Biso   1.000  O
  O48      1.0000 0.20244  0.21676  0.08148  Biso   1.000  O
  O49      1.0000 0.50000  0.02557  0.92750  Biso   1.000  O
  O50      1.0000 0.50000  0.47443  0.42750  Biso   1.000  O
  O51      1.0000 0.00000  0.02557  0.57250  Biso   1.000  O
  O52      1.0000 0.00000  0.47443  0.07250  Biso   1.000  O
  O53      1.0000 0.25000  0.24681  0.25000  Biso   1.000  O
  O54      1.0000 0.75000  0.25319  0.75000  Biso   1.000  O
  O55      1.0000 0.25000  0.25319  0.75000  Biso   1.000  O
  O56      1.0000 0.75000  0.24681  0.25000  Biso   1.000  O
  O57      1.0000 0.28162  0.16906  0.00378  Biso   1.000  O
  O58      1.0000 0.71839  0.33094  0.50378  Biso   1.000  O
  O59      1.0000 0.21839  0.16906  0.49622  Biso   1.000  O
  O60      1.0000 0.78162  0.33094  0.99622  Biso   1.000  O
  O61      1.0000 0.21839  0.33094  0.99622  Biso   1.000  O
  O62      1.0000 0.78162  0.16906  0.49622  Biso   1.000  O
  O63      1.0000 0.28162  0.33094  0.50378  Biso   1.000  O
  O64      1.0000 0.71839  0.16906  0.00378  Biso   1.000  O
  O65      1.0000 0.29228  0.31859  0.08381  Biso   1.000  O
  O66      1.0000 0.70772  0.18141  0.58381  Biso   1.000  O
  O67      1.0000 0.20772  0.31859  0.41619  Biso   1.000  O
  O68      1.0000 0.79228  0.18141  0.91619  Biso   1.000  O
  O69      1.0000 0.20772  0.18141  0.91619  Biso   1.000  O
  O70      1.0000 0.79228  0.31859  0.41619  Biso   1.000  O
  O71      1.0000 0.29228  0.18141  0.58381  Biso   1.000  O
  O72      1.0000 0.70772  0.31859  0.08381  Biso   1.000  O
  O73      1.0000 0.00000  0.30884  0.93417  Biso   1.000  O
  O74      1.0000 0.00000  0.19116  0.43417  Biso   1.000  O
  O75      1.0000 0.50000  0.30884  0.56583  Biso   1.000  O
  O76      1.0000 0.50000  0.19116  0.06583  Biso   1.000  O
  O77      1.0000 0.50000  0.13958  0.52616  Biso   1.000  O
  O78      1.0000 0.50000  0.36042  0.02616  Biso   1.000  O
  O79      1.0000 0.00000  0.13958  0.97384  Biso   1.000  O
  O80      1.0000 0.00000  0.36042  0.47384  Biso   1.000  O
  O81      1.0000 0.00000  0.23036  0.30252  Biso   1.000  O
  O82      1.0000 0.00000  0.26964  0.80252  Biso   1.000  O
  O83      1.0000 0.50000  0.23036  0.19748  Biso   1.000  O
  O84      1.0000 0.50000  0.26964  0.69748  Biso   1.000  O
  O85      1.0000 0.26445  0.43362  0.83851  Biso   1.000  O
  O86      1.0000 0.73555  0.06638  0.33851  Biso   1.000  O
  O87      1.0000 0.23555  0.43362  0.66149  Biso   1.000  O
  O88      1.0000 0.76445  0.06638  0.16149  Biso   1.000  O
  O89      1.0000 0.23555  0.06638  0.16149  Biso   1.000  O
  O90      1.0000 0.76445  0.43362  0.66149  Biso   1.000  O
  O91      1.0000 0.26445  0.06638  0.33851  Biso   1.000  O
  O92      1.0000 0.73555  0.43362  0.83851  Biso   1.000  O
  O93      1.0000 0.25000  0.08689  0.25000  Biso   1.000  O
  O94      1.0000 0.75000  0.41311  0.75000  Biso   1.000  O
  O95      1.0000 0.25000  0.41311  0.75000  Biso   1.000  O
  O96      1.0000 0.75000  0.08689  0.25000  Biso   1.000  O
  O97      1.0000 0.75229  0.08429  0.55032  Biso   1.000  O
  O98      1.0000 0.24771  0.41571  0.05032  Biso   1.000  O
  O99      1.0000 0.74771  0.08429  0.94968  Biso   1.000  O
  O100     1.0000 0.25229  0.41571  0.44968  Biso   1.000  O
  O101     1.0000 0.74771  0.41571  0.44968  Biso   1.000  O
  O102     1.0000 0.25229  0.08429  0.94968  Biso   1.000  O
  O103     1.0000 0.75229  0.41571  0.05032  Biso   1.000  O
  O104     1.0000 0.24771  0.08429  0.55032  Biso   1.000  O
  O105     1.0000 0.50000  0.10337  0.19753  Biso   1.000  O
  O106     1.0000 0.50000  0.39663  0.69753  Biso   1.000  O
  O107     1.0000 0.00000  0.10337  0.30247  Biso   1.000  O
  O108     1.0000 0.00000  0.39663  0.80247  Biso   1.000  O
  O109     1.0000 0.00000  0.20780  0.60570  Biso   1.000  O
  O110     1.0000 0.00000  0.29220  0.10570  Biso   1.000  O
  O111     1.0000 0.50000  0.20780  0.89430  Biso   1.000  O
  O112     1.0000 0.50000  0.29220  0.39430  Biso   1.000  O
  O113     1.0000 0.25074  0.66688  0.31035  Biso   1.000  O
  O114     1.0000 0.74926  0.83312  0.81035  Biso   1.000  O
  O115     1.0000 0.24926  0.66688  0.18965  Biso   1.000  O
  O116     1.0000 0.75074  0.83312  0.68965  Biso   1.000  O
  O117     1.0000 0.24926  0.83312  0.68965  Biso   1.000  O
  O118     1.0000 0.75074  0.66688  0.18965  Biso   1.000  O
  O119     1.0000 0.25074  0.83312  0.81035  Biso   1.000  O
  O120     1.0000 0.74926  0.66688  0.31035  Biso   1.000  O
  O121     1.0000 0.26425  0.76729  0.16138  Biso   1.000  O
  O122     1.0000 0.73575  0.73271  0.66138  Biso   1.000  O
  O123     1.0000 0.23575  0.76729  0.33862  Biso   1.000  O
  O124     1.0000 0.76425  0.73271  0.83862  Biso   1.000  O
  O125     1.0000 0.23575  0.73271  0.83862  Biso   1.000  O
  O126     1.0000 0.76425  0.76729  0.33862  Biso   1.000  O
  O127     1.0000 0.26425  0.73271  0.66138  Biso   1.000  O
  O128     1.0000 0.73575  0.76729  0.16138  Biso   1.000  O
  O129     1.0000 0.70924  0.61508  0.41791  Biso   1.000  O
  O130     1.0000 0.29076  0.88492  0.91791  Biso   1.000  O
  O131     1.0000 0.79076  0.61508  0.08209  Biso   1.000  O
  O132     1.0000 0.20924  0.88492  0.58209  Biso   1.000  O
  O133     1.0000 0.79076  0.88492  0.58209  Biso   1.000  O
  O134     1.0000 0.20924  0.61508  0.08209  Biso   1.000  O
  O135     1.0000 0.70924  0.88492  0.91791  Biso   1.000  O
  O136     1.0000 0.29076  0.61508  0.41791  Biso   1.000  O
  O137     1.0000 0.71118  0.98749  0.58371  Biso   1.000  O
  O138     1.0000 0.28882  0.51251  0.08371  Biso   1.000  O
  O139     1.0000 0.78882  0.98749  0.91629  Biso   1.000  O
  O140     1.0000 0.21118  0.51251  0.41629  Biso   1.000  O
  O141     1.0000 0.78882  0.51251  0.41629  Biso   1.000  O
  O142     1.0000 0.21118  0.98749  0.91629  Biso   1.000  O
  O143     1.0000 0.71118  0.51251  0.08371  Biso   1.000  O
  O144     1.0000 0.28882  0.98749  0.58371  Biso   1.000  O
  O145     1.0000 0.82642  0.50000  0.00000  Biso   1.000  O
  O146     1.0000 0.67358  0.50000  0.50000  Biso   1.000  O
  O147     1.0000 0.17358  0.50000  0.00000  Biso   1.000  O
  O148     1.0000 0.32643  0.50000  0.50000  Biso   1.000  O
  O149     1.0000 0.00000  0.58662  0.39601  Biso   1.000  O
  O150     1.0000 0.00000  0.91339  0.89601  Biso   1.000  O
  O151     1.0000 0.50000  0.58662  0.10399  Biso   1.000  O
  O152     1.0000 0.50000  0.91339  0.60399  Biso   1.000  O
  O153     1.0000 0.29756  0.71676  0.08148  Biso   1.000  O
  O154     1.0000 0.70244  0.78324  0.58148  Biso   1.000  O
  O155     1.0000 0.20244  0.71676  0.41852  Biso   1.000  O
  O156     1.0000 0.79756  0.78324  0.91852  Biso   1.000  O
  O157     1.0000 0.20244  0.78324  0.91852  Biso   1.000  O
  O158     1.0000 0.79756  0.71676  0.41852  Biso   1.000  O
  O159     1.0000 0.29756  0.78324  0.58148  Biso   1.000  O
  O160     1.0000 0.70244  0.71676  0.08148  Biso   1.000  O
  O161     1.0000 0.00000  0.52557  0.92750  Biso   1.000  O
  O162     1.0000 0.00000  0.97443  0.42750  Biso   1.000  O
  O163     1.0000 0.50000  0.52557  0.57250  Biso   1.000  O
  O164     1.0000 0.50000  0.97443  0.07250  Biso   1.000  O
  O165     1.0000 0.75000  0.74681  0.25000  Biso   1.000  O
  O166     1.0000 0.25000  0.75319  0.75000  Biso   1.000  O
  O167     1.0000 0.75000  0.75319  0.75000  Biso   1.000  O
  O168     1.0000 0.25000  0.74681  0.25000  Biso   1.000  O
  O169     1.0000 0.78162  0.66906  0.00378  Biso   1.000  O
  O170     1.0000 0.21839  0.83094  0.50378  Biso   1.000  O
  O171     1.0000 0.71839  0.66906  0.49622  Biso   1.000  O
  O172     1.0000 0.28162  0.83094  0.99622  Biso   1.000  O
  O173     1.0000 0.71839  0.83094  0.99622  Biso   1.000  O
  O174     1.0000 0.28162  0.66906  0.49622  Biso   1.000  O
  O175     1.0000 0.78162  0.83094  0.50378  Biso   1.000  O
  O176     1.0000 0.21839  0.66906  0.00378  Biso   1.000  O
  O177     1.0000 0.79228  0.81859  0.08381  Biso   1.000  O
  O178     1.0000 0.20772  0.68141  0.58381  Biso   1.000  O
  O179     1.0000 0.70772  0.81859  0.41619  Biso   1.000  O
  O180     1.0000 0.29228  0.68141  0.91619  Biso   1.000  O
  O181     1.0000 0.70772  0.68141  0.91619  Biso   1.000  O
  O182     1.0000 0.29228  0.81859  0.41619  Biso   1.000  O
  O183     1.0000 0.79228  0.68141  0.58381  Biso   1.000  O
  O184     1.0000 0.20772  0.81859  0.08381  Biso   1.000  O
  O185     1.0000 0.50000  0.80884  0.93417  Biso   1.000  O
  O186     1.0000 0.50000  0.69116  0.43417  Biso   1.000  O
  O187     1.0000 0.00000  0.80884  0.56583  Biso   1.000  O
  O188     1.0000 0.00000  0.69116  0.06583  Biso   1.000  O
  O189     1.0000 0.00000  0.63958  0.52616  Biso   1.000  O
  O190     1.0000 0.00000  0.86042  0.02616  Biso   1.000  O
  O191     1.0000 0.50000  0.63958  0.97384  Biso   1.000  O
  O192     1.0000 0.50000  0.86042  0.47384  Biso   1.000  O
  O193     1.0000 0.50000  0.73036  0.30252  Biso   1.000  O
  O194     1.0000 0.50000  0.76964  0.80252  Biso   1.000  O
  O195     1.0000 0.00000  0.73036  0.19748  Biso   1.000  O
  O196     1.0000 0.00000  0.76964  0.69748  Biso   1.000  O
  O197     1.0000 0.76445  0.93362  0.83851  Biso   1.000  O
  O198     1.0000 0.23555  0.56638  0.33851  Biso   1.000  O
  O199     1.0000 0.73555  0.93362  0.66149  Biso   1.000  O
  O200     1.0000 0.26445  0.56638  0.16149  Biso   1.000  O
  O201     1.0000 0.73555  0.56638  0.16149  Biso   1.000  O
  O202     1.0000 0.26445  0.93362  0.66149  Biso   1.000  O
  O203     1.0000 0.76445  0.56638  0.33851  Biso   1.000  O
  O204     1.0000 0.23555  0.93362  0.83851  Biso   1.000  O
  O205     1.0000 0.75000  0.58689  0.25000  Biso   1.000  O
  O206     1.0000 0.25000  0.91311  0.75000  Biso   1.000  O
  O207     1.0000 0.75000  0.91311  0.75000  Biso   1.000  O
  O208     1.0000 0.25000  0.58689  0.25000  Biso   1.000  O
  O209     1.0000 0.25229  0.58429  0.55032  Biso   1.000  O
  O210     1.0000 0.74771  0.91571  0.05032  Biso   1.000  O
  O211     1.0000 0.24771  0.58429  0.94968  Biso   1.000  O
  O212     1.0000 0.75229  0.91571  0.44968  Biso   1.000  O
  O213     1.0000 0.24771  0.91571  0.44968  Biso   1.000  O
  O214     1.0000 0.75229  0.58429  0.94968  Biso   1.000  O
  O215     1.0000 0.25229  0.91571  0.05032  Biso   1.000  O
  O216     1.0000 0.74771  0.58429  0.55032  Biso   1.000  O
  O217     1.0000 0.00000  0.60337  0.19753  Biso   1.000  O
  O218     1.0000 0.00000  0.89663  0.69753  Biso   1.000  O
  O219     1.0000 0.50000  0.60337  0.30247  Biso   1.000  O
  O220     1.0000 0.50000  0.89663  0.80247  Biso   1.000  O
  O221     1.0000 0.50000  0.70780  0.60570  Biso   1.000  O
  O222     1.0000 0.50000  0.79220  0.10570  Biso   1.000  O
  O223     1.0000 0.00000  0.70780  0.89430  Biso   1.000  O
  O224     1.0000 0.00000  0.79220  0.39430  Biso   1.000  O
  Ir1      1.0000 0.68291  0.22640  0.89203  Biso   1.000  Ir
  Ir2      1.0000 0.31709  0.27360  0.39203  Biso   1.000  Ir
  Ir3      1.0000 0.81709  0.22640  0.60797  Biso   1.000  Ir
  Ir4      1.0000 0.18291  0.27360  0.10797  Biso   1.000  Ir
  Ir5      1.0000 0.81709  0.27360  0.10797  Biso   1.000  Ir
  Ir6      1.0000 0.18291  0.22640  0.60797  Biso   1.000  Ir
  Ir7      1.0000 0.68291  0.27360  0.39203  Biso   1.000  Ir
  Ir8      1.0000 0.31709  0.22640  0.89203  Biso   1.000  Ir
  Ir9      1.0000 0.18538  0.14338  0.96082  Biso   1.000  Ir
  Ir10     1.0000 0.81462  0.35662  0.46082  Biso   1.000  Ir
  Ir11     1.0000 0.31462  0.14338  0.53919  Biso   1.000  Ir
  Ir12     1.0000 0.68538  0.35662  0.03919  Biso   1.000  Ir
  Ir13     1.0000 0.31462  0.35662  0.03919  Biso   1.000  Ir
  Ir14     1.0000 0.68538  0.14338  0.53919  Biso   1.000  Ir
  Ir15     1.0000 0.18538  0.35662  0.46082  Biso   1.000  Ir
  Ir16     1.0000 0.81462  0.14338  0.96082  Biso   1.000  Ir
  Ir17     1.0000 0.68255  0.32704  0.55829  Biso   1.000  Ir
  Ir18     1.0000 0.31745  0.17296  0.05829  Biso   1.000  Ir
  Ir19     1.0000 0.81745  0.32704  0.94171  Biso   1.000  Ir
  Ir20     1.0000 0.18255  0.17296  0.44171  Biso   1.000  Ir
  Ir21     1.0000 0.81745  0.17296  0.44171  Biso   1.000  Ir
  Ir22     1.0000 0.18255  0.32704  0.94171  Biso   1.000  Ir
  Ir23     1.0000 0.68255  0.17296  0.05829  Biso   1.000  Ir
  Ir24     1.0000 0.31745  0.32704  0.55829  Biso   1.000  Ir
  Ir25     1.0000 0.19013  0.22792  0.30035  Biso   1.000  Ir
  Ir26     1.0000 0.80987  0.27208  0.80035  Biso   1.000  Ir
  Ir27     1.0000 0.30987  0.22792  0.19965  Biso   1.000  Ir
  Ir28     1.0000 0.69013  0.27208  0.69965  Biso   1.000  Ir
  Ir29     1.0000 0.30987  0.27208  0.69965  Biso   1.000  Ir
  Ir30     1.0000 0.69013  0.22792  0.19965  Biso   1.000  Ir
  Ir31     1.0000 0.19013  0.27208  0.80035  Biso   1.000  Ir
  Ir32     1.0000 0.80987  0.22792  0.30035  Biso   1.000  Ir
  Ir33     1.0000 0.68415  0.42986  0.89229  Biso   1.000  Ir
  Ir34     1.0000 0.31585  0.07014  0.39229  Biso   1.000  Ir
  Ir35     1.0000 0.81585  0.42986  0.60771  Biso   1.000  Ir
  Ir36     1.0000 0.18415  0.07014  0.10771  Biso   1.000  Ir
  Ir37     1.0000 0.81585  0.07014  0.10771  Biso   1.000  Ir
  Ir38     1.0000 0.18415  0.42986  0.60771  Biso   1.000  Ir
  Ir39     1.0000 0.68415  0.07014  0.39229  Biso   1.000  Ir
  Ir40     1.0000 0.31585  0.42986  0.89229  Biso   1.000  Ir
  Ir41     1.0000 0.31001  0.10591  0.19977  Biso   1.000  Ir
  Ir42     1.0000 0.68999  0.39409  0.69977  Biso   1.000  Ir
  Ir43     1.0000 0.18999  0.10591  0.30023  Biso   1.000  Ir
  Ir44     1.0000 0.81001  0.39409  0.80023  Biso   1.000  Ir
  Ir45     1.0000 0.18999  0.39409  0.80023  Biso   1.000  Ir
  Ir46     1.0000 0.81001  0.10591  0.30023  Biso   1.000  Ir
  Ir47     1.0000 0.31001  0.39409  0.69977  Biso   1.000  Ir
  Ir48     1.0000 0.68999  0.10591  0.19977  Biso   1.000  Ir
  Ir49     1.0000 0.17793  0.02447  0.55143  Biso   1.000  Ir
  Ir50     1.0000 0.82207  0.47553  0.05143  Biso   1.000  Ir
  Ir51     1.0000 0.32207  0.02447  0.94857  Biso   1.000  Ir
  Ir52     1.0000 0.67793  0.47553  0.44857  Biso   1.000  Ir
  Ir53     1.0000 0.32207  0.47553  0.44857  Biso   1.000  Ir
  Ir54     1.0000 0.67793  0.02447  0.94857  Biso   1.000  Ir
  Ir55     1.0000 0.17793  0.47553  0.05143  Biso   1.000  Ir
  Ir56     1.0000 0.82207  0.02447  0.55143  Biso   1.000  Ir
  Ir57     1.0000 0.18291  0.72640  0.89203  Biso   1.000  Ir
  Ir58     1.0000 0.81709  0.77360  0.39203  Biso   1.000  Ir
  Ir59     1.0000 0.31709  0.72640  0.60797  Biso   1.000  Ir
  Ir60     1.0000 0.68291  0.77360  0.10797  Biso   1.000  Ir
  Ir61     1.0000 0.31709  0.77360  0.10797  Biso   1.000  Ir
  Ir62     1.0000 0.68291  0.72640  0.60797  Biso   1.000  Ir
  Ir63     1.0000 0.18291  0.77360  0.39203  Biso   1.000  Ir
  Ir64     1.0000 0.81709  0.72640  0.89203  Biso   1.000  Ir
  Ir65     1.0000 0.68538  0.64338  0.96082  Biso   1.000  Ir
  Ir66     1.0000 0.31462  0.85662  0.46082  Biso   1.000  Ir
  Ir67     1.0000 0.81462  0.64338  0.53919  Biso   1.000  Ir
  Ir68     1.0000 0.18538  0.85662  0.03919  Biso   1.000  Ir
  Ir69     1.0000 0.81462  0.85662  0.03919  Biso   1.000  Ir
  Ir70     1.0000 0.18538  0.64338  0.53919  Biso   1.000  Ir
  Ir71     1.0000 0.68538  0.85662  0.46082  Biso   1.000  Ir
  Ir72     1.0000 0.31462  0.64338  0.96082  Biso   1.000  Ir
  Ir73     1.0000 0.18255  0.82705  0.55829  Biso   1.000  Ir
  Ir74     1.0000 0.81745  0.67295  0.05829  Biso   1.000  Ir
  Ir75     1.0000 0.31745  0.82705  0.94171  Biso   1.000  Ir
  Ir76     1.0000 0.68255  0.67295  0.44171  Biso   1.000  Ir
  Ir77     1.0000 0.31745  0.67295  0.44171  Biso   1.000  Ir
  Ir78     1.0000 0.68255  0.82705  0.94171  Biso   1.000  Ir
  Ir79     1.0000 0.18255  0.67295  0.05829  Biso   1.000  Ir
  Ir80     1.0000 0.81745  0.82705  0.55829  Biso   1.000  Ir
  Ir81     1.0000 0.69013  0.72793  0.30035  Biso   1.000  Ir
  Ir82     1.0000 0.30987  0.77207  0.80035  Biso   1.000  Ir
  Ir83     1.0000 0.80987  0.72793  0.19965  Biso   1.000  Ir
  Ir84     1.0000 0.19013  0.77207  0.69965  Biso   1.000  Ir
  Ir85     1.0000 0.80987  0.77207  0.69965  Biso   1.000  Ir
  Ir86     1.0000 0.19013  0.72793  0.19965  Biso   1.000  Ir
  Ir87     1.0000 0.69013  0.77207  0.80035  Biso   1.000  Ir
  Ir88     1.0000 0.30987  0.72793  0.30035  Biso   1.000  Ir
  Ir89     1.0000 0.18415  0.92986  0.89229  Biso   1.000  Ir
  Ir90     1.0000 0.81585  0.57014  0.39229  Biso   1.000  Ir
  Ir91     1.0000 0.31585  0.92986  0.60771  Biso   1.000  Ir
  Ir92     1.0000 0.68415  0.57014  0.10771  Biso   1.000  Ir
  Ir93     1.0000 0.31585  0.57014  0.10771  Biso   1.000  Ir
  Ir94     1.0000 0.68415  0.92986  0.60771  Biso   1.000  Ir
  Ir95     1.0000 0.18415  0.57014  0.39229  Biso   1.000  Ir
  Ir96     1.0000 0.81585  0.92986  0.89229  Biso   1.000  Ir
  Ir97     1.0000 0.81001  0.60591  0.19977  Biso   1.000  Ir
  Ir98     1.0000 0.18999  0.89409  0.69977  Biso   1.000  Ir
  Ir99     1.0000 0.68999  0.60591  0.30023  Biso   1.000  Ir
  Ir100    1.0000 0.31001  0.89409  0.80023  Biso   1.000  Ir
  Ir101    1.0000 0.68999  0.89409  0.80023  Biso   1.000  Ir
  Ir102    1.0000 0.31001  0.60591  0.30023  Biso   1.000  Ir
  Ir103    1.0000 0.81001  0.89409  0.69977  Biso   1.000  Ir
  Ir104    1.0000 0.18999  0.60591  0.19977  Biso   1.000  Ir
  Ir105    1.0000 0.67793  0.52447  0.55143  Biso   1.000  Ir
  Ir106    1.0000 0.32207  0.97553  0.05143  Biso   1.000  Ir
  Ir107    1.0000 0.82207  0.52447  0.94857  Biso   1.000  Ir
  Ir108    1.0000 0.17793  0.97553  0.44857  Biso   1.000  Ir
  Ir109    1.0000 0.82207  0.97553  0.44857  Biso   1.000  Ir
  Ir110    1.0000 0.17793  0.52447  0.94857  Biso   1.000  Ir
  Ir111    1.0000 0.67793  0.97553  0.05143  Biso   1.000  Ir
  Ir112    1.0000 0.32207  0.52447  0.55143  Biso   1.000  Ir
