data_image0
_cell_length_a       22.5654
_cell_length_b       22.5654
_cell_length_c       6.40896
_cell_angle_alpha    90
_cell_angle_beta     90
_cell_angle_gamma    90

_symmetry_space_group_name_H-M    "P 1"
_symmetry_int_tables_number       1

loop_
  _symmetry_equiv_pos_as_xyz
  'x, y, z'

loop_
  _atom_site_label
  _atom_site_occupancy
  _atom_site_fract_x
  _atom_site_fract_y
  _atom_site_fract_z
  _atom_site_thermal_displace_type
  _atom_site_B_iso_or_equiv
  _atom_site_type_symbol
  O1       1.0000 0.69164  0.69164  0.50000  Biso   1.000  O
  O2       1.0000 0.80836  0.80836  0.00000  Biso   1.000  O
  O3       1.0000 0.30836  0.69164  0.50000  Biso   1.000  O
  O4       1.0000 0.19164  0.80836  0.00000  Biso   1.000  O
  O5       1.0000 0.31523  0.81523  0.75000  Biso   1.000  O
  O6       1.0000 0.68477  0.18477  0.75000  Biso   1.000  O
  O7       1.0000 0.68477  0.81523  0.25000  Biso   1.000  O
  O8       1.0000 0.31523  0.18477  0.25000  Biso   1.000  O
  O9       1.0000 0.68477  0.18477  0.25000  Biso   1.000  O
  O10      1.0000 0.31523  0.81523  0.25000  Biso   1.000  O
  O11      1.0000 0.31523  0.18477  0.75000  Biso   1.000  O
  O12      1.0000 0.68477  0.81523  0.75000  Biso   1.000  O
  O13      1.0000 0.57127  0.77018  0.50000  Biso   1.000  O
  O14      1.0000 0.42873  0.22982  0.50000  Biso   1.000  O
  O15      1.0000 0.72982  0.07127  0.00000  Biso   1.000  O
  O16      1.0000 0.27018  0.92873  0.00000  Biso   1.000  O
  O17      1.0000 0.42873  0.77018  0.50000  Biso   1.000  O
  O18      1.0000 0.57127  0.22982  0.50000  Biso   1.000  O
  O19      1.0000 0.27018  0.07127  0.00000  Biso   1.000  O
  O20      1.0000 0.72982  0.92873  0.00000  Biso   1.000  O
  O21      1.0000 0.50000  0.67043  0.75071  Biso   1.000  O
  O22      1.0000 0.50000  0.32957  0.75071  Biso   1.000  O
  O23      1.0000 0.82957  0.00000  0.25071  Biso   1.000  O
  O24      1.0000 0.17043  0.00000  0.25071  Biso   1.000  O
  O25      1.0000 0.50000  0.67043  0.24929  Biso   1.000  O
  O26      1.0000 0.50000  0.32957  0.24929  Biso   1.000  O
  O27      1.0000 0.17043  0.00000  0.74929  Biso   1.000  O
  O28      1.0000 0.82957  0.00000  0.74929  Biso   1.000  O
  O29      1.0000 0.57141  0.57141  0.00000  Biso   1.000  O
  O30      1.0000 0.92859  0.92859  0.50000  Biso   1.000  O
  O31      1.0000 0.42859  0.57141  0.00000  Biso   1.000  O
  O32      1.0000 0.07141  0.92859  0.50000  Biso   1.000  O
  O33      1.0000 0.19164  0.19164  0.00000  Biso   1.000  O
  O34      1.0000 0.30836  0.30836  0.50000  Biso   1.000  O
  O35      1.0000 0.80836  0.19164  0.00000  Biso   1.000  O
  O36      1.0000 0.69164  0.30836  0.50000  Biso   1.000  O
  O37      1.0000 0.81523  0.31523  0.25000  Biso   1.000  O
  O38      1.0000 0.18477  0.68477  0.25000  Biso   1.000  O
  O39      1.0000 0.18477  0.31523  0.75000  Biso   1.000  O
  O40      1.0000 0.81523  0.68477  0.75000  Biso   1.000  O
  O41      1.0000 0.18477  0.68477  0.75000  Biso   1.000  O
  O42      1.0000 0.81523  0.31523  0.75000  Biso   1.000  O
  O43      1.0000 0.81523  0.68477  0.25000  Biso   1.000  O
  O44      1.0000 0.18477  0.31523  0.25000  Biso   1.000  O
  O45      1.0000 0.07127  0.27018  0.00000  Biso   1.000  O
  O46      1.0000 0.92873  0.72982  0.00000  Biso   1.000  O
  O47      1.0000 0.22982  0.57127  0.50000  Biso   1.000  O
  O48      1.0000 0.77018  0.42873  0.50000  Biso   1.000  O
  O49      1.0000 0.92873  0.27018  0.00000  Biso   1.000  O
  O50      1.0000 0.07127  0.72982  0.00000  Biso   1.000  O
  O51      1.0000 0.77018  0.57127  0.50000  Biso   1.000  O
  O52      1.0000 0.22982  0.42873  0.50000  Biso   1.000  O
  O53      1.0000 0.00000  0.17043  0.25071  Biso   1.000  O
  O54      1.0000 0.00000  0.82957  0.25071  Biso   1.000  O
  O55      1.0000 0.32957  0.50000  0.75071  Biso   1.000  O
  O56      1.0000 0.67043  0.50000  0.75071  Biso   1.000  O
  O57      1.0000 0.00000  0.17043  0.74929  Biso   1.000  O
  O58      1.0000 0.00000  0.82957  0.74929  Biso   1.000  O
  O59      1.0000 0.67043  0.50000  0.24929  Biso   1.000  O
  O60      1.0000 0.32957  0.50000  0.24929  Biso   1.000  O
  O61      1.0000 0.07141  0.07141  0.50000  Biso   1.000  O
  O62      1.0000 0.42859  0.42859  0.00000  Biso   1.000  O
  O63      1.0000 0.92859  0.07141  0.50000  Biso   1.000  O
  O64      1.0000 0.57141  0.42859  0.00000  Biso   1.000  O
  Ir1      1.0000 0.65809  0.77300  0.50000  Biso   1.000  Ir
  Ir2      1.0000 0.34191  0.22700  0.50000  Biso   1.000  Ir
  Ir3      1.0000 0.72700  0.15809  0.00000  Biso   1.000  Ir
  Ir4      1.0000 0.27300  0.84191  0.00000  Biso   1.000  Ir
  Ir5      1.0000 0.34191  0.77300  0.50000  Biso   1.000  Ir
  Ir6      1.0000 0.65809  0.22700  0.50000  Biso   1.000  Ir
  Ir7      1.0000 0.27300  0.15809  0.00000  Biso   1.000  Ir
  Ir8      1.0000 0.72700  0.84191  0.00000  Biso   1.000  Ir
  Ir9      1.0000 0.12084  0.00000  0.50000  Biso   1.000  Ir
  Ir10     1.0000 0.87916  0.00000  0.50000  Biso   1.000  Ir
  Ir11     1.0000 0.50000  0.62084  0.00000  Biso   1.000  Ir
  Ir12     1.0000 0.50000  0.37916  0.00000  Biso   1.000  Ir
  Ir13     1.0000 0.21993  0.00000  0.00000  Biso   1.000  Ir
  Ir14     1.0000 0.78007  0.00000  0.00000  Biso   1.000  Ir
  Ir15     1.0000 0.50000  0.71993  0.50000  Biso   1.000  Ir
  Ir16     1.0000 0.50000  0.28007  0.50000  Biso   1.000  Ir
  Ir17     1.0000 0.15809  0.27300  0.00000  Biso   1.000  Ir
  Ir18     1.0000 0.84191  0.72700  0.00000  Biso   1.000  Ir
  Ir19     1.0000 0.22700  0.65809  0.50000  Biso   1.000  Ir
  Ir20     1.0000 0.77300  0.34191  0.50000  Biso   1.000  Ir
  Ir21     1.0000 0.84191  0.27300  0.00000  Biso   1.000  Ir
  Ir22     1.0000 0.15809  0.72700  0.00000  Biso   1.000  Ir
  Ir23     1.0000 0.77300  0.65809  0.50000  Biso   1.000  Ir
  Ir24     1.0000 0.22700  0.34191  0.50000  Biso   1.000  Ir
  Ir25     1.0000 0.62084  0.50000  0.00000  Biso   1.000  Ir
  Ir26     1.0000 0.37916  0.50000  0.00000  Biso   1.000  Ir
  Ir27     1.0000 0.00000  0.12084  0.50000  Biso   1.000  Ir
  Ir28     1.0000 0.00000  0.87916  0.50000  Biso   1.000  Ir
  Ir29     1.0000 0.71993  0.50000  0.50000  Biso   1.000  Ir
  Ir30     1.0000 0.28007  0.50000  0.50000  Biso   1.000  Ir
  Ir31     1.0000 0.00000  0.21993  0.00000  Biso   1.000  Ir
  Ir32     1.0000 0.00000  0.78007  0.00000  Biso   1.000  Ir
