data_image0
_cell_length_a       7.43383
_cell_length_b       7.43384
_cell_length_c       9.06833
_cell_angle_alpha    90
_cell_angle_beta     90
_cell_angle_gamma    120

_symmetry_space_group_name_H-M    "P 1"
_symmetry_int_tables_number       1

loop_
  _symmetry_equiv_pos_as_xyz
  'x, y, z'

loop_
  _atom_site_label
  _atom_site_occupancy
  _atom_site_fract_x
  _atom_site_fract_y
  _atom_site_fract_z
  _atom_site_thermal_displace_type
  _atom_site_B_iso_or_equiv
  _atom_site_type_symbol
  O1       1.0000 0.17104  0.82896  0.60269  Biso   1.000  O
  O2       1.0000 0.17104  0.34208  0.60269  Biso   1.000  O
  O3       1.0000 0.65792  0.82896  0.60269  Biso   1.000  O
  O4       1.0000 0.82896  0.17104  0.10269  Biso   1.000  O
  O5       1.0000 0.82896  0.65792  0.10269  Biso   1.000  O
  O6       1.0000 0.34208  0.17104  0.10269  Biso   1.000  O
  O7       1.0000 0.47618  0.52382  0.33823  Biso   1.000  O
  O8       1.0000 0.47618  0.95235  0.33823  Biso   1.000  O
  O9       1.0000 0.04765  0.52382  0.33823  Biso   1.000  O
  O10      1.0000 0.52382  0.47618  0.83823  Biso   1.000  O
  O11      1.0000 0.52382  0.04765  0.83823  Biso   1.000  O
  O12      1.0000 0.95235  0.47618  0.83823  Biso   1.000  O
  O13      1.0000 0.33333  0.66667  0.09887  Biso   1.000  O
  O14      1.0000 0.66667  0.33333  0.59887  Biso   1.000  O
  O15      1.0000 0.00000  0.00000  0.31296  Biso   1.000  O
  O16      1.0000 0.00000  0.00000  0.81297  Biso   1.000  O
  Ir1      1.0000 0.16802  0.83198  0.21118  Biso   1.000  Ir
  Ir2      1.0000 0.16802  0.33604  0.21118  Biso   1.000  Ir
  Ir3      1.0000 0.66396  0.83198  0.21118  Biso   1.000  Ir
  Ir4      1.0000 0.83198  0.16802  0.71118  Biso   1.000  Ir
  Ir5      1.0000 0.83198  0.66396  0.71118  Biso   1.000  Ir
  Ir6      1.0000 0.33604  0.16802  0.71118  Biso   1.000  Ir
  Ir7      1.0000 0.33333  0.66667  0.48972  Biso   1.000  Ir
  Ir8      1.0000 0.66667  0.33333  0.98972  Biso   1.000  Ir
