data_image0
_cell_length_a       9.22971
_cell_length_b       22.1119
_cell_length_c       31.5989
_cell_angle_alpha    90
_cell_angle_beta     90
_cell_angle_gamma    90

_symmetry_space_group_name_H-M    "P 1"
_symmetry_int_tables_number       1

loop_
  _symmetry_equiv_pos_as_xyz
  'x, y, z'

loop_
  _atom_site_label
  _atom_site_occupancy
  _atom_site_fract_x
  _atom_site_fract_y
  _atom_site_fract_z
  _atom_site_thermal_displace_type
  _atom_site_B_iso_or_equiv
  _atom_site_type_symbol
  O1       1.0000 0.32564  0.89896  0.46169  Biso   1.000  O
  O2       1.0000 0.67436  0.10104  0.46169  Biso   1.000  O
  O3       1.0000 0.17436  0.39896  0.53831  Biso   1.000  O
  O4       1.0000 0.82564  0.60104  0.53831  Biso   1.000  O
  O5       1.0000 0.17436  0.60104  0.53831  Biso   1.000  O
  O6       1.0000 0.82564  0.39896  0.53831  Biso   1.000  O
  O7       1.0000 0.32564  0.10104  0.46169  Biso   1.000  O
  O8       1.0000 0.67436  0.89896  0.46169  Biso   1.000  O
  O9       1.0000 0.00000  0.36114  0.45533  Biso   1.000  O
  O10      1.0000 0.00000  0.63886  0.45533  Biso   1.000  O
  O11      1.0000 0.50000  0.86114  0.54467  Biso   1.000  O
  O12      1.0000 0.50000  0.13886  0.54467  Biso   1.000  O
  O13      1.0000 0.00000  0.50000  0.48500  Biso   1.000  O
  O14      1.0000 0.50000  0.00000  0.51500  Biso   1.000  O
  O15      1.0000 0.32562  0.77881  0.61015  Biso   1.000  O
  O16      1.0000 0.67438  0.22119  0.61015  Biso   1.000  O
  O17      1.0000 0.17438  0.27881  0.38985  Biso   1.000  O
  O18      1.0000 0.82562  0.72119  0.38985  Biso   1.000  O
  O19      1.0000 0.17438  0.72119  0.38985  Biso   1.000  O
  O20      1.0000 0.82562  0.27881  0.38985  Biso   1.000  O
  O21      1.0000 0.32562  0.22119  0.61015  Biso   1.000  O
  O22      1.0000 0.67438  0.77881  0.61015  Biso   1.000  O
  O23      1.0000 0.00000  0.39636  0.35710  Biso   1.000  O
  O24      1.0000 0.00000  0.60365  0.35710  Biso   1.000  O
  O25      1.0000 0.50000  0.89636  0.64290  Biso   1.000  O
  O26      1.0000 0.50000  0.10365  0.64290  Biso   1.000  O
  O27      1.0000 0.32452  0.87821  0.73010  Biso   1.000  O
  O28      1.0000 0.67548  0.12179  0.73010  Biso   1.000  O
  O29      1.0000 0.17548  0.37821  0.26990  Biso   1.000  O
  O30      1.0000 0.82452  0.62179  0.26990  Biso   1.000  O
  O31      1.0000 0.17548  0.62179  0.26990  Biso   1.000  O
  O32      1.0000 0.82452  0.37821  0.26990  Biso   1.000  O
  O33      1.0000 0.32452  0.12179  0.73010  Biso   1.000  O
  O34      1.0000 0.67548  0.87821  0.73010  Biso   1.000  O
  O35      1.0000 0.00000  0.50000  0.28589  Biso   1.000  O
  O36      1.0000 0.50000  0.00000  0.71411  Biso   1.000  O
  O37      1.0000 0.00000  0.90667  0.42975  Biso   1.000  O
  O38      1.0000 0.00000  0.09333  0.42975  Biso   1.000  O
  O39      1.0000 0.50000  0.40667  0.57025  Biso   1.000  O
  O40      1.0000 0.50000  0.59333  0.57025  Biso   1.000  O
  O41      1.0000 0.75247  0.85989  0.36600  Biso   1.000  O
  O42      1.0000 0.24753  0.14011  0.36600  Biso   1.000  O
  O43      1.0000 0.74753  0.35989  0.63400  Biso   1.000  O
  O44      1.0000 0.25247  0.64011  0.63400  Biso   1.000  O
  O45      1.0000 0.74753  0.64011  0.63400  Biso   1.000  O
  O46      1.0000 0.25247  0.35989  0.63400  Biso   1.000  O
  O47      1.0000 0.75247  0.14011  0.36600  Biso   1.000  O
  O48      1.0000 0.24753  0.85989  0.36600  Biso   1.000  O
  O49      1.0000 0.76287  0.00000  0.39256  Biso   1.000  O
  O50      1.0000 0.23713  0.00000  0.39256  Biso   1.000  O
  O51      1.0000 0.73713  0.50000  0.60744  Biso   1.000  O
  O52      1.0000 0.26287  0.50000  0.60744  Biso   1.000  O
  O53      1.0000 0.77052  0.74255  0.70516  Biso   1.000  O
  O54      1.0000 0.22948  0.25745  0.70516  Biso   1.000  O
  O55      1.0000 0.72948  0.24255  0.29484  Biso   1.000  O
  O56      1.0000 0.27052  0.75745  0.29484  Biso   1.000  O
  O57      1.0000 0.72948  0.75745  0.29484  Biso   1.000  O
  O58      1.0000 0.27052  0.24255  0.29484  Biso   1.000  O
  O59      1.0000 0.77052  0.25745  0.70516  Biso   1.000  O
  O60      1.0000 0.22948  0.74255  0.70516  Biso   1.000  O
  O61      1.0000 0.00000  0.73999  0.62807  Biso   1.000  O
  O62      1.0000 0.00000  0.26001  0.62807  Biso   1.000  O
  O63      1.0000 0.50000  0.23999  0.37193  Biso   1.000  O
  O64      1.0000 0.50000  0.76001  0.37193  Biso   1.000  O
  O65      1.0000 0.00000  0.83457  0.74800  Biso   1.000  O
  O66      1.0000 0.00000  0.16543  0.74800  Biso   1.000  O
  O67      1.0000 0.50000  0.33457  0.25201  Biso   1.000  O
  O68      1.0000 0.50000  0.66543  0.25201  Biso   1.000  O
  O69      1.0000 0.73554  0.77936  0.80236  Biso   1.000  O
  O70      1.0000 0.26446  0.22064  0.80236  Biso   1.000  O
  O71      1.0000 0.76446  0.27936  0.19764  Biso   1.000  O
  O72      1.0000 0.23553  0.72064  0.19764  Biso   1.000  O
  O73      1.0000 0.76446  0.72064  0.19764  Biso   1.000  O
  O74      1.0000 0.23553  0.27936  0.19764  Biso   1.000  O
  O75      1.0000 0.73554  0.22064  0.80236  Biso   1.000  O
  O76      1.0000 0.26446  0.77936  0.80236  Biso   1.000  O
  O77      1.0000 0.82489  0.87612  0.87378  Biso   1.000  O
  O78      1.0000 0.17511  0.12388  0.87378  Biso   1.000  O
  O79      1.0000 0.67511  0.37612  0.12622  Biso   1.000  O
  O80      1.0000 0.32489  0.62388  0.12622  Biso   1.000  O
  O81      1.0000 0.67511  0.62388  0.12622  Biso   1.000  O
  O82      1.0000 0.32489  0.37612  0.12622  Biso   1.000  O
  O83      1.0000 0.82489  0.12388  0.87378  Biso   1.000  O
  O84      1.0000 0.17511  0.87612  0.87378  Biso   1.000  O
  O85      1.0000 0.00000  0.00000  0.88080  Biso   1.000  O
  O86      1.0000 0.50000  0.50000  0.11920  Biso   1.000  O
  O87      1.0000 0.00000  0.90602  0.95872  Biso   1.000  O
  O88      1.0000 0.00000  0.09398  0.95872  Biso   1.000  O
  O89      1.0000 0.50000  0.40602  0.04128  Biso   1.000  O
  O90      1.0000 0.50000  0.59398  0.04128  Biso   1.000  O
  O91      1.0000 0.82529  0.87636  0.04433  Biso   1.000  O
  O92      1.0000 0.17471  0.12364  0.04433  Biso   1.000  O
  O93      1.0000 0.67471  0.37636  0.95567  Biso   1.000  O
  O94      1.0000 0.32529  0.62364  0.95567  Biso   1.000  O
  O95      1.0000 0.67471  0.62364  0.95567  Biso   1.000  O
  O96      1.0000 0.32529  0.37636  0.95567  Biso   1.000  O
  O97      1.0000 0.82529  0.12364  0.04433  Biso   1.000  O
  O98      1.0000 0.17471  0.87636  0.04433  Biso   1.000  O
  O99      1.0000 0.00000  0.00000  0.03684  Biso   1.000  O
  O100     1.0000 0.50000  0.50000  0.96316  Biso   1.000  O
  O101     1.0000 0.75959  0.73761  0.89851  Biso   1.000  O
  O102     1.0000 0.24041  0.26239  0.89851  Biso   1.000  O
  O103     1.0000 0.74041  0.23761  0.10149  Biso   1.000  O
  O104     1.0000 0.25959  0.76239  0.10149  Biso   1.000  O
  O105     1.0000 0.74041  0.76239  0.10149  Biso   1.000  O
  O106     1.0000 0.25959  0.23761  0.10149  Biso   1.000  O
  O107     1.0000 0.75959  0.26239  0.89851  Biso   1.000  O
  O108     1.0000 0.24041  0.73761  0.89851  Biso   1.000  O
  O109     1.0000 0.00000  0.32608  0.12970  Biso   1.000  O
  O110     1.0000 0.00000  0.67393  0.12970  Biso   1.000  O
  O111     1.0000 0.50000  0.82608  0.87030  Biso   1.000  O
  O112     1.0000 0.50000  0.17392  0.87030  Biso   1.000  O
  O113     1.0000 0.00000  0.67161  0.95557  Biso   1.000  O
  O114     1.0000 0.00000  0.32839  0.95557  Biso   1.000  O
  O115     1.0000 0.50000  0.17161  0.04443  Biso   1.000  O
  O116     1.0000 0.50000  0.82839  0.04443  Biso   1.000  O
  O117     1.0000 0.25000  0.25000  0.00000  Biso   1.000  O
  O118     1.0000 0.75000  0.75000  0.00000  Biso   1.000  O
  O119     1.0000 0.25000  0.75000  0.00000  Biso   1.000  O
  O120     1.0000 0.75000  0.25000  0.00000  Biso   1.000  O
  Ir1      1.0000 0.79674  0.91644  0.41245  Biso   1.000  Ir
  Ir2      1.0000 0.20326  0.08356  0.41245  Biso   1.000  Ir
  Ir3      1.0000 0.70326  0.41644  0.58755  Biso   1.000  Ir
  Ir4      1.0000 0.29674  0.58356  0.58755  Biso   1.000  Ir
  Ir5      1.0000 0.70326  0.58356  0.58755  Biso   1.000  Ir
  Ir6      1.0000 0.29674  0.41644  0.58755  Biso   1.000  Ir
  Ir7      1.0000 0.79674  0.08356  0.41245  Biso   1.000  Ir
  Ir8      1.0000 0.20326  0.91644  0.41245  Biso   1.000  Ir
  Ir9      1.0000 0.79724  0.72538  0.64431  Biso   1.000  Ir
  Ir10     1.0000 0.20276  0.27462  0.64431  Biso   1.000  Ir
  Ir11     1.0000 0.70276  0.22538  0.35569  Biso   1.000  Ir
  Ir12     1.0000 0.29724  0.77462  0.35569  Biso   1.000  Ir
  Ir13     1.0000 0.70276  0.77462  0.35569  Biso   1.000  Ir
  Ir14     1.0000 0.29724  0.22538  0.35569  Biso   1.000  Ir
  Ir15     1.0000 0.79724  0.27462  0.64431  Biso   1.000  Ir
  Ir16     1.0000 0.20276  0.72538  0.64431  Biso   1.000  Ir
  Ir17     1.0000 0.79561  0.80880  0.74638  Biso   1.000  Ir
  Ir18     1.0000 0.20439  0.19120  0.74638  Biso   1.000  Ir
  Ir19     1.0000 0.70439  0.30880  0.25362  Biso   1.000  Ir
  Ir20     1.0000 0.29561  0.69120  0.25362  Biso   1.000  Ir
  Ir21     1.0000 0.70439  0.69120  0.25362  Biso   1.000  Ir
  Ir22     1.0000 0.29561  0.30880  0.25362  Biso   1.000  Ir
  Ir23     1.0000 0.79561  0.19120  0.74638  Biso   1.000  Ir
  Ir24     1.0000 0.20439  0.80880  0.74638  Biso   1.000  Ir
  Ir25     1.0000 0.70489  0.80483  0.86148  Biso   1.000  Ir
  Ir26     1.0000 0.29511  0.19517  0.86148  Biso   1.000  Ir
  Ir27     1.0000 0.79511  0.30483  0.13853  Biso   1.000  Ir
  Ir28     1.0000 0.20489  0.69517  0.13853  Biso   1.000  Ir
  Ir29     1.0000 0.79511  0.69517  0.13853  Biso   1.000  Ir
  Ir30     1.0000 0.20489  0.30483  0.13853  Biso   1.000  Ir
  Ir31     1.0000 0.70489  0.19517  0.86148  Biso   1.000  Ir
  Ir32     1.0000 0.29511  0.80483  0.86148  Biso   1.000  Ir
  Ir33     1.0000 0.79573  0.69615  0.95251  Biso   1.000  Ir
  Ir34     1.0000 0.20427  0.30385  0.95251  Biso   1.000  Ir
  Ir35     1.0000 0.70427  0.19615  0.04749  Biso   1.000  Ir
  Ir36     1.0000 0.29573  0.80385  0.04749  Biso   1.000  Ir
  Ir37     1.0000 0.70427  0.80385  0.04749  Biso   1.000  Ir
  Ir38     1.0000 0.29573  0.19615  0.04749  Biso   1.000  Ir
  Ir39     1.0000 0.79573  0.30385  0.95251  Biso   1.000  Ir
  Ir40     1.0000 0.20427  0.69615  0.95251  Biso   1.000  Ir
  Ir41     1.0000 0.00000  0.41523  0.50420  Biso   1.000  Ir
  Ir42     1.0000 0.00000  0.58477  0.50420  Biso   1.000  Ir
  Ir43     1.0000 0.50000  0.91523  0.49580  Biso   1.000  Ir
  Ir44     1.0000 0.50000  0.08477  0.49580  Biso   1.000  Ir
  Ir45     1.0000 0.00000  0.32895  0.39794  Biso   1.000  Ir
  Ir46     1.0000 0.00000  0.67105  0.39794  Biso   1.000  Ir
  Ir47     1.0000 0.50000  0.82895  0.60206  Biso   1.000  Ir
  Ir48     1.0000 0.50000  0.17105  0.60206  Biso   1.000  Ir
  Ir49     1.0000 0.00000  0.41296  0.29584  Biso   1.000  Ir
  Ir50     1.0000 0.00000  0.58704  0.29584  Biso   1.000  Ir
  Ir51     1.0000 0.50000  0.91296  0.70416  Biso   1.000  Ir
  Ir52     1.0000 0.50000  0.08704  0.70416  Biso   1.000  Ir
  Ir53     1.0000 0.00000  0.91443  0.89706  Biso   1.000  Ir
  Ir54     1.0000 0.00000  0.08557  0.89706  Biso   1.000  Ir
  Ir55     1.0000 0.50000  0.41443  0.10294  Biso   1.000  Ir
  Ir56     1.0000 0.50000  0.58557  0.10294  Biso   1.000  Ir
  Ir57     1.0000 0.00000  0.91463  0.02073  Biso   1.000  Ir
  Ir58     1.0000 0.00000  0.08537  0.02073  Biso   1.000  Ir
  Ir59     1.0000 0.50000  0.41463  0.97927  Biso   1.000  Ir
  Ir60     1.0000 0.50000  0.58537  0.97927  Biso   1.000  Ir
