data_image0
_cell_length_a       5.37297
_cell_length_b       5.37297
_cell_length_c       83.4038
_cell_angle_alpha    90
_cell_angle_beta     90
_cell_angle_gamma    120

_symmetry_space_group_name_H-M    "P 1"
_symmetry_int_tables_number       1

loop_
  _symmetry_equiv_pos_as_xyz
  'x, y, z'

loop_
  _atom_site_label
  _atom_site_occupancy
  _atom_site_fract_x
  _atom_site_fract_y
  _atom_site_fract_z
  _atom_site_thermal_displace_type
  _atom_site_B_iso_or_equiv
  _atom_site_type_symbol
  Ir1      1.0000 0.00000  0.00000  0.02086  Biso   1.000  Ir
  Ir2      1.0000 0.66667  0.33333  0.10416  Biso   1.000  Ir
  Ir3      1.0000 0.66667  0.33333  0.18747  Biso   1.000  Ir
  Ir4      1.0000 0.00000  0.00000  0.27084  Biso   1.000  Ir
  Ir5      1.0000 0.00000  0.00000  0.35417  Biso   1.000  Ir
  Ir6      1.0000 0.66667  0.33333  0.43747  Biso   1.000  Ir
  Ir7      1.0000 0.66667  0.33333  0.52084  Biso   1.000  Ir
  Ir8      1.0000 0.66667  0.33333  0.60416  Biso   1.000  Ir
  Ir9      1.0000 0.00000  0.00000  0.68749  Biso   1.000  Ir
  Ir10     1.0000 0.66667  0.33333  0.77084  Biso   1.000  Ir
  Ir11     1.0000 0.00000  0.00000  0.85416  Biso   1.000  Ir
  Ir12     1.0000 0.00000  0.00000  0.93750  Biso   1.000  Ir
  O1       1.0000 0.66667  0.33333  0.00019  Biso   1.000  O
  O2       1.0000 0.33333  0.66667  0.04147  Biso   1.000  O
  O3       1.0000 0.00000  0.00000  0.08353  Biso   1.000  O
  O4       1.0000 0.33333  0.66667  0.12481  Biso   1.000  O
  O5       1.0000 0.00000  0.00000  0.16687  Biso   1.000  O
  O6       1.0000 0.33333  0.66667  0.20812  Biso   1.000  O
  O7       1.0000 0.66667  0.33333  0.25022  Biso   1.000  O
  O8       1.0000 0.33333  0.66667  0.29146  Biso   1.000  O
  O9       1.0000 0.66667  0.33333  0.33353  Biso   1.000  O
  O10      1.0000 0.33333  0.66667  0.37480  Biso   1.000  O
  O11      1.0000 0.00000  0.00000  0.41689  Biso   1.000  O
  O12      1.0000 0.33333  0.66667  0.45814  Biso   1.000  O
  O13      1.0000 0.00000  0.00000  0.50022  Biso   1.000  O
  O14      1.0000 0.33333  0.66667  0.54147  Biso   1.000  O
  O15      1.0000 0.00000  0.00000  0.58354  Biso   1.000  O
  O16      1.0000 0.33333  0.66667  0.62479  Biso   1.000  O
  O17      1.0000 0.66667  0.33333  0.66688  Biso   1.000  O
  O18      1.0000 0.33333  0.66667  0.70811  Biso   1.000  O
  O19      1.0000 0.00000  0.00000  0.75021  Biso   1.000  O
  O20      1.0000 0.33333  0.66667  0.79146  Biso   1.000  O
  O21      1.0000 0.66667  0.33333  0.83354  Biso   1.000  O
  O22      1.0000 0.33333  0.66667  0.87479  Biso   1.000  O
  O23      1.0000 0.66667  0.33333  0.91688  Biso   1.000  O
  O24      1.0000 0.33333  0.66667  0.95812  Biso   1.000  O
