data_image0
_cell_length_a       16.9603
_cell_length_b       27.5928
_cell_length_c       25.2356
_cell_angle_alpha    90
_cell_angle_beta     90
_cell_angle_gamma    90

_symmetry_space_group_name_H-M    "P 1"
_symmetry_int_tables_number       1

loop_
  _symmetry_equiv_pos_as_xyz
  'x, y, z'

loop_
  _atom_site_label
  _atom_site_occupancy
  _atom_site_fract_x
  _atom_site_fract_y
  _atom_site_fract_z
  _atom_site_thermal_displace_type
  _atom_site_B_iso_or_equiv
  _atom_site_type_symbol
  O1       1.0000 0.16690  0.30626  0.69065  Biso   1.000  O
  O2       1.0000 0.83310  0.19373  0.69065  Biso   1.000  O
  O3       1.0000 0.16690  0.69374  0.30935  Biso   1.000  O
  O4       1.0000 0.83310  0.80627  0.30935  Biso   1.000  O
  O5       1.0000 0.83310  0.69374  0.30935  Biso   1.000  O
  O6       1.0000 0.16690  0.80627  0.30935  Biso   1.000  O
  O7       1.0000 0.83310  0.30626  0.69065  Biso   1.000  O
  O8       1.0000 0.16690  0.19373  0.69065  Biso   1.000  O
  O9       1.0000 0.84090  0.69252  0.09047  Biso   1.000  O
  O10      1.0000 0.15910  0.80748  0.09047  Biso   1.000  O
  O11      1.0000 0.84090  0.30748  0.90953  Biso   1.000  O
  O12      1.0000 0.15910  0.19252  0.90953  Biso   1.000  O
  O13      1.0000 0.15910  0.30748  0.90953  Biso   1.000  O
  O14      1.0000 0.84090  0.19252  0.90953  Biso   1.000  O
  O15      1.0000 0.15910  0.69252  0.09047  Biso   1.000  O
  O16      1.0000 0.84090  0.80748  0.09047  Biso   1.000  O
  O17      1.0000 0.40627  0.41124  0.30112  Biso   1.000  O
  O18      1.0000 0.09373  0.58876  0.30112  Biso   1.000  O
  O19      1.0000 0.40627  0.58876  0.69888  Biso   1.000  O
  O20      1.0000 0.09373  0.41124  0.69888  Biso   1.000  O
  O21      1.0000 0.59373  0.58876  0.69888  Biso   1.000  O
  O22      1.0000 0.90627  0.41124  0.69888  Biso   1.000  O
  O23      1.0000 0.59373  0.41124  0.30112  Biso   1.000  O
  O24      1.0000 0.90627  0.58876  0.30112  Biso   1.000  O
  O25      1.0000 0.00000  0.97769  0.12576  Biso   1.000  O
  O26      1.0000 0.00000  0.52231  0.12576  Biso   1.000  O
  O27      1.0000 0.00000  0.02231  0.87424  Biso   1.000  O
  O28      1.0000 0.00000  0.47769  0.87424  Biso   1.000  O
  O29      1.0000 0.25000  0.50000  0.57662  Biso   1.000  O
  O30      1.0000 0.25000  0.50000  0.42338  Biso   1.000  O
  O31      1.0000 0.75000  0.50000  0.42338  Biso   1.000  O
  O32      1.0000 0.75000  0.50000  0.57662  Biso   1.000  O
  O33      1.0000 0.00000  0.49863  0.74884  Biso   1.000  O
  O34      1.0000 0.00000  0.00137  0.74884  Biso   1.000  O
  O35      1.0000 0.00000  0.50137  0.25116  Biso   1.000  O
  O36      1.0000 0.00000  0.99863  0.25116  Biso   1.000  O
  O37      1.0000 0.40431  0.56822  0.17563  Biso   1.000  O
  O38      1.0000 0.09570  0.43178  0.17563  Biso   1.000  O
  O39      1.0000 0.40431  0.43178  0.82437  Biso   1.000  O
  O40      1.0000 0.09570  0.56822  0.82437  Biso   1.000  O
  O41      1.0000 0.59570  0.43178  0.82437  Biso   1.000  O
  O42      1.0000 0.90431  0.56822  0.82437  Biso   1.000  O
  O43      1.0000 0.59570  0.56822  0.17563  Biso   1.000  O
  O44      1.0000 0.90431  0.43178  0.17563  Biso   1.000  O
  O45      1.0000 0.25603  0.59271  0.88090  Biso   1.000  O
  O46      1.0000 0.24397  0.40729  0.88090  Biso   1.000  O
  O47      1.0000 0.25603  0.40729  0.11910  Biso   1.000  O
  O48      1.0000 0.24397  0.59271  0.11910  Biso   1.000  O
  O49      1.0000 0.74397  0.40729  0.11910  Biso   1.000  O
  O50      1.0000 0.75603  0.59271  0.11910  Biso   1.000  O
  O51      1.0000 0.74397  0.59271  0.88090  Biso   1.000  O
  O52      1.0000 0.75603  0.40729  0.88090  Biso   1.000  O
  O53      1.0000 0.59304  0.59126  0.95594  Biso   1.000  O
  O54      1.0000 0.90696  0.40874  0.95594  Biso   1.000  O
  O55      1.0000 0.59304  0.40874  0.04406  Biso   1.000  O
  O56      1.0000 0.90696  0.59126  0.04406  Biso   1.000  O
  O57      1.0000 0.40696  0.40874  0.04406  Biso   1.000  O
  O58      1.0000 0.09304  0.59126  0.04406  Biso   1.000  O
  O59      1.0000 0.40696  0.59126  0.95594  Biso   1.000  O
  O60      1.0000 0.09304  0.40874  0.95594  Biso   1.000  O
  O61      1.0000 0.13803  0.75000  0.19981  Biso   1.000  O
  O62      1.0000 0.86198  0.75000  0.19981  Biso   1.000  O
  O63      1.0000 0.13803  0.25000  0.80019  Biso   1.000  O
  O64      1.0000 0.86198  0.25000  0.80019  Biso   1.000  O
  O65      1.0000 0.00000  0.75000  0.11296  Biso   1.000  O
  O66      1.0000 0.00000  0.25000  0.88704  Biso   1.000  O
  O67      1.0000 0.25411  0.39174  0.37381  Biso   1.000  O
  O68      1.0000 0.24589  0.60826  0.37381  Biso   1.000  O
  O69      1.0000 0.25411  0.60826  0.62619  Biso   1.000  O
  O70      1.0000 0.24589  0.39174  0.62619  Biso   1.000  O
  O71      1.0000 0.74589  0.60826  0.62619  Biso   1.000  O
  O72      1.0000 0.75411  0.39174  0.62619  Biso   1.000  O
  O73      1.0000 0.74589  0.39174  0.37381  Biso   1.000  O
  O74      1.0000 0.75411  0.60826  0.37381  Biso   1.000  O
  O75      1.0000 0.75980  0.39203  0.24583  Biso   1.000  O
  O76      1.0000 0.74020  0.60797  0.24583  Biso   1.000  O
  O77      1.0000 0.75980  0.60797  0.75417  Biso   1.000  O
  O78      1.0000 0.74020  0.39203  0.75417  Biso   1.000  O
  O79      1.0000 0.24020  0.60797  0.75417  Biso   1.000  O
  O80      1.0000 0.25980  0.39203  0.75417  Biso   1.000  O
  O81      1.0000 0.24020  0.39203  0.24583  Biso   1.000  O
  O82      1.0000 0.25980  0.60797  0.24583  Biso   1.000  O
  O83      1.0000 0.25000  0.59259  0.50000  Biso   1.000  O
  O84      1.0000 0.25000  0.40741  0.50000  Biso   1.000  O
  O85      1.0000 0.75000  0.40741  0.50000  Biso   1.000  O
  O86      1.0000 0.75000  0.59259  0.50000  Biso   1.000  O
  O87      1.0000 0.25000  0.36309  0.00000  Biso   1.000  O
  O88      1.0000 0.25000  0.63691  0.00000  Biso   1.000  O
  O89      1.0000 0.75000  0.63691  0.00000  Biso   1.000  O
  O90      1.0000 0.75000  0.36309  0.00000  Biso   1.000  O
  O91      1.0000 0.40331  0.42722  0.57280  Biso   1.000  O
  O92      1.0000 0.09669  0.57278  0.57280  Biso   1.000  O
  O93      1.0000 0.40331  0.57278  0.42720  Biso   1.000  O
  O94      1.0000 0.09669  0.42722  0.42720  Biso   1.000  O
  O95      1.0000 0.59669  0.57278  0.42720  Biso   1.000  O
  O96      1.0000 0.90331  0.42722  0.42720  Biso   1.000  O
  O97      1.0000 0.59669  0.42722  0.57280  Biso   1.000  O
  O98      1.0000 0.90331  0.57278  0.57280  Biso   1.000  O
  O99      1.0000 0.00000  0.51552  0.37637  Biso   1.000  O
  O100     1.0000 0.00000  0.98448  0.37637  Biso   1.000  O
  O101     1.0000 0.00000  0.48448  0.62363  Biso   1.000  O
  O102     1.0000 0.00000  0.01552  0.62363  Biso   1.000  O
  O103     1.0000 0.50000  0.50000  0.50000  Biso   1.000  O
  O104     1.0000 0.00000  0.50000  0.50000  Biso   1.000  O
  O105     1.0000 0.25000  0.50000  0.19694  Biso   1.000  O
  O106     1.0000 0.25000  0.50000  0.80306  Biso   1.000  O
  O107     1.0000 0.75000  0.50000  0.80306  Biso   1.000  O
  O108     1.0000 0.75000  0.50000  0.19694  Biso   1.000  O
  O109     1.0000 0.00000  0.75000  0.28812  Biso   1.000  O
  O110     1.0000 0.00000  0.25000  0.71188  Biso   1.000  O
  O111     1.0000 0.00000  0.00000  0.00000  Biso   1.000  O
  O112     1.0000 0.00000  0.50000  0.00000  Biso   1.000  O
  O113     1.0000 0.66690  0.80627  0.69065  Biso   1.000  O
  O114     1.0000 0.33310  0.69374  0.69065  Biso   1.000  O
  O115     1.0000 0.66690  0.19373  0.30935  Biso   1.000  O
  O116     1.0000 0.33310  0.30626  0.30935  Biso   1.000  O
  O117     1.0000 0.33310  0.19373  0.30935  Biso   1.000  O
  O118     1.0000 0.66690  0.30626  0.30935  Biso   1.000  O
  O119     1.0000 0.33310  0.80627  0.69065  Biso   1.000  O
  O120     1.0000 0.66690  0.69374  0.69065  Biso   1.000  O
  O121     1.0000 0.34090  0.19252  0.09047  Biso   1.000  O
  O122     1.0000 0.65910  0.30748  0.09047  Biso   1.000  O
  O123     1.0000 0.34090  0.80748  0.90953  Biso   1.000  O
  O124     1.0000 0.65910  0.69252  0.90953  Biso   1.000  O
  O125     1.0000 0.65910  0.80748  0.90953  Biso   1.000  O
  O126     1.0000 0.34090  0.69252  0.90953  Biso   1.000  O
  O127     1.0000 0.65910  0.19252  0.09047  Biso   1.000  O
  O128     1.0000 0.34090  0.30748  0.09047  Biso   1.000  O
  O129     1.0000 0.90627  0.91124  0.30112  Biso   1.000  O
  O130     1.0000 0.59373  0.08876  0.30112  Biso   1.000  O
  O131     1.0000 0.90627  0.08876  0.69888  Biso   1.000  O
  O132     1.0000 0.59373  0.91124  0.69888  Biso   1.000  O
  O133     1.0000 0.09373  0.08876  0.69888  Biso   1.000  O
  O134     1.0000 0.40627  0.91124  0.69888  Biso   1.000  O
  O135     1.0000 0.09373  0.91124  0.30112  Biso   1.000  O
  O136     1.0000 0.40627  0.08876  0.30112  Biso   1.000  O
  O137     1.0000 0.50000  0.47769  0.12576  Biso   1.000  O
  O138     1.0000 0.50000  0.02231  0.12576  Biso   1.000  O
  O139     1.0000 0.50000  0.52231  0.87424  Biso   1.000  O
  O140     1.0000 0.50000  0.97769  0.87424  Biso   1.000  O
  O141     1.0000 0.75000  0.00000  0.57662  Biso   1.000  O
  O142     1.0000 0.75000  0.00000  0.42338  Biso   1.000  O
  O143     1.0000 0.25000  0.00000  0.42338  Biso   1.000  O
  O144     1.0000 0.25000  0.00000  0.57662  Biso   1.000  O
  O145     1.0000 0.50000  0.99863  0.74884  Biso   1.000  O
  O146     1.0000 0.50000  0.50137  0.74884  Biso   1.000  O
  O147     1.0000 0.50000  0.00137  0.25116  Biso   1.000  O
  O148     1.0000 0.50000  0.49863  0.25116  Biso   1.000  O
  O149     1.0000 0.90431  0.06822  0.17563  Biso   1.000  O
  O150     1.0000 0.59570  0.93178  0.17563  Biso   1.000  O
  O151     1.0000 0.90431  0.93178  0.82437  Biso   1.000  O
  O152     1.0000 0.59570  0.06822  0.82437  Biso   1.000  O
  O153     1.0000 0.09570  0.93178  0.82437  Biso   1.000  O
  O154     1.0000 0.40431  0.06822  0.82437  Biso   1.000  O
  O155     1.0000 0.09570  0.06822  0.17563  Biso   1.000  O
  O156     1.0000 0.40431  0.93178  0.17563  Biso   1.000  O
  O157     1.0000 0.75603  0.09271  0.88090  Biso   1.000  O
  O158     1.0000 0.74397  0.90729  0.88090  Biso   1.000  O
  O159     1.0000 0.75603  0.90729  0.11910  Biso   1.000  O
  O160     1.0000 0.74397  0.09271  0.11910  Biso   1.000  O
  O161     1.0000 0.24397  0.90729  0.11910  Biso   1.000  O
  O162     1.0000 0.25603  0.09271  0.11910  Biso   1.000  O
  O163     1.0000 0.24397  0.09271  0.88090  Biso   1.000  O
  O164     1.0000 0.25603  0.90729  0.88090  Biso   1.000  O
  O165     1.0000 0.09304  0.09126  0.95594  Biso   1.000  O
  O166     1.0000 0.40696  0.90874  0.95594  Biso   1.000  O
  O167     1.0000 0.09304  0.90874  0.04406  Biso   1.000  O
  O168     1.0000 0.40696  0.09126  0.04406  Biso   1.000  O
  O169     1.0000 0.90696  0.90874  0.04406  Biso   1.000  O
  O170     1.0000 0.59304  0.09126  0.04406  Biso   1.000  O
  O171     1.0000 0.90696  0.09126  0.95594  Biso   1.000  O
  O172     1.0000 0.59304  0.90874  0.95594  Biso   1.000  O
  O173     1.0000 0.63802  0.25000  0.19981  Biso   1.000  O
  O174     1.0000 0.36197  0.25000  0.19981  Biso   1.000  O
  O175     1.0000 0.63802  0.75000  0.80019  Biso   1.000  O
  O176     1.0000 0.36197  0.75000  0.80019  Biso   1.000  O
  O177     1.0000 0.50000  0.25000  0.11296  Biso   1.000  O
  O178     1.0000 0.50000  0.75000  0.88704  Biso   1.000  O
  O179     1.0000 0.75411  0.89174  0.37381  Biso   1.000  O
  O180     1.0000 0.74589  0.10826  0.37381  Biso   1.000  O
  O181     1.0000 0.75411  0.10826  0.62619  Biso   1.000  O
  O182     1.0000 0.74589  0.89174  0.62619  Biso   1.000  O
  O183     1.0000 0.24589  0.10826  0.62619  Biso   1.000  O
  O184     1.0000 0.25411  0.89174  0.62619  Biso   1.000  O
  O185     1.0000 0.24589  0.89174  0.37381  Biso   1.000  O
  O186     1.0000 0.25411  0.10826  0.37381  Biso   1.000  O
  O187     1.0000 0.25980  0.89203  0.24583  Biso   1.000  O
  O188     1.0000 0.24020  0.10797  0.24583  Biso   1.000  O
  O189     1.0000 0.25980  0.10797  0.75417  Biso   1.000  O
  O190     1.0000 0.24020  0.89203  0.75417  Biso   1.000  O
  O191     1.0000 0.74020  0.10797  0.75417  Biso   1.000  O
  O192     1.0000 0.75980  0.89203  0.75417  Biso   1.000  O
  O193     1.0000 0.74020  0.89203  0.24583  Biso   1.000  O
  O194     1.0000 0.75980  0.10797  0.24583  Biso   1.000  O
  O195     1.0000 0.75000  0.09259  0.50000  Biso   1.000  O
  O196     1.0000 0.75000  0.90741  0.50000  Biso   1.000  O
  O197     1.0000 0.25000  0.90741  0.50000  Biso   1.000  O
  O198     1.0000 0.25000  0.09259  0.50000  Biso   1.000  O
  O199     1.0000 0.75000  0.86309  0.00000  Biso   1.000  O
  O200     1.0000 0.75000  0.13691  0.00000  Biso   1.000  O
  O201     1.0000 0.25000  0.13691  0.00000  Biso   1.000  O
  O202     1.0000 0.25000  0.86309  0.00000  Biso   1.000  O
  O203     1.0000 0.90331  0.92722  0.57280  Biso   1.000  O
  O204     1.0000 0.59669  0.07278  0.57280  Biso   1.000  O
  O205     1.0000 0.90331  0.07278  0.42720  Biso   1.000  O
  O206     1.0000 0.59669  0.92722  0.42720  Biso   1.000  O
  O207     1.0000 0.09669  0.07278  0.42720  Biso   1.000  O
  O208     1.0000 0.40331  0.92722  0.42720  Biso   1.000  O
  O209     1.0000 0.09669  0.92722  0.57280  Biso   1.000  O
  O210     1.0000 0.40331  0.07278  0.57280  Biso   1.000  O
  O211     1.0000 0.50000  0.01552  0.37637  Biso   1.000  O
  O212     1.0000 0.50000  0.48448  0.37637  Biso   1.000  O
  O213     1.0000 0.50000  0.98448  0.62363  Biso   1.000  O
  O214     1.0000 0.50000  0.51552  0.62363  Biso   1.000  O
  O215     1.0000 0.00000  0.00000  0.50000  Biso   1.000  O
  O216     1.0000 0.50000  0.00000  0.50000  Biso   1.000  O
  O217     1.0000 0.75000  0.00000  0.19694  Biso   1.000  O
  O218     1.0000 0.75000  0.00000  0.80306  Biso   1.000  O
  O219     1.0000 0.25000  0.00000  0.80306  Biso   1.000  O
  O220     1.0000 0.25000  0.00000  0.19694  Biso   1.000  O
  O221     1.0000 0.50000  0.25000  0.28812  Biso   1.000  O
  O222     1.0000 0.50000  0.75000  0.71188  Biso   1.000  O
  O223     1.0000 0.50000  0.50000  0.00000  Biso   1.000  O
  O224     1.0000 0.50000  0.00000  0.00000  Biso   1.000  O
  Ir1      1.0000 0.00000  0.95125  0.30820  Biso   1.000  Ir
  Ir2      1.0000 0.00000  0.54875  0.30820  Biso   1.000  Ir
  Ir3      1.0000 0.00000  0.04875  0.69180  Biso   1.000  Ir
  Ir4      1.0000 0.00000  0.45125  0.69180  Biso   1.000  Ir
  Ir5      1.0000 0.68689  0.62819  0.93605  Biso   1.000  Ir
  Ir6      1.0000 0.81311  0.37181  0.93605  Biso   1.000  Ir
  Ir7      1.0000 0.68689  0.37181  0.06395  Biso   1.000  Ir
  Ir8      1.0000 0.81311  0.62819  0.06395  Biso   1.000  Ir
  Ir9      1.0000 0.31311  0.37181  0.06395  Biso   1.000  Ir
  Ir10     1.0000 0.18689  0.62819  0.06395  Biso   1.000  Ir
  Ir11     1.0000 0.31311  0.62819  0.93605  Biso   1.000  Ir
  Ir12     1.0000 0.18689  0.37181  0.93605  Biso   1.000  Ir
  Ir13     1.0000 0.28879  0.56682  0.18480  Biso   1.000  Ir
  Ir14     1.0000 0.21121  0.43318  0.18480  Biso   1.000  Ir
  Ir15     1.0000 0.28879  0.43318  0.81520  Biso   1.000  Ir
  Ir16     1.0000 0.21121  0.56682  0.81520  Biso   1.000  Ir
  Ir17     1.0000 0.71121  0.43318  0.81520  Biso   1.000  Ir
  Ir18     1.0000 0.78879  0.56682  0.81520  Biso   1.000  Ir
  Ir19     1.0000 0.71121  0.56682  0.18480  Biso   1.000  Ir
  Ir20     1.0000 0.78879  0.43318  0.18480  Biso   1.000  Ir
  Ir21     1.0000 0.00000  0.44951  0.94586  Biso   1.000  Ir
  Ir22     1.0000 0.00000  0.05049  0.94586  Biso   1.000  Ir
  Ir23     1.0000 0.00000  0.55049  0.05414  Biso   1.000  Ir
  Ir24     1.0000 0.00000  0.94951  0.05414  Biso   1.000  Ir
  Ir25     1.0000 0.00000  0.97180  0.81891  Biso   1.000  Ir
  Ir26     1.0000 0.00000  0.52820  0.81891  Biso   1.000  Ir
  Ir27     1.0000 0.00000  0.02820  0.18109  Biso   1.000  Ir
  Ir28     1.0000 0.00000  0.47180  0.18109  Biso   1.000  Ir
  Ir29     1.0000 0.11405  0.25000  0.87632  Biso   1.000  Ir
  Ir30     1.0000 0.88595  0.25000  0.87632  Biso   1.000  Ir
  Ir31     1.0000 0.11405  0.75000  0.12368  Biso   1.000  Ir
  Ir32     1.0000 0.88595  0.75000  0.12368  Biso   1.000  Ir
  Ir33     1.0000 0.30728  0.62444  0.69287  Biso   1.000  Ir
  Ir34     1.0000 0.19272  0.37556  0.69287  Biso   1.000  Ir
  Ir35     1.0000 0.30728  0.37556  0.30713  Biso   1.000  Ir
  Ir36     1.0000 0.19272  0.62444  0.30713  Biso   1.000  Ir
  Ir37     1.0000 0.69272  0.37556  0.30713  Biso   1.000  Ir
  Ir38     1.0000 0.80728  0.62444  0.30713  Biso   1.000  Ir
  Ir39     1.0000 0.69272  0.62444  0.69287  Biso   1.000  Ir
  Ir40     1.0000 0.80728  0.37556  0.69287  Biso   1.000  Ir
  Ir41     1.0000 0.88438  0.25000  0.72370  Biso   1.000  Ir
  Ir42     1.0000 0.11562  0.25000  0.72370  Biso   1.000  Ir
  Ir43     1.0000 0.88438  0.75000  0.27630  Biso   1.000  Ir
  Ir44     1.0000 0.11562  0.75000  0.27630  Biso   1.000  Ir
  Ir45     1.0000 0.71286  0.56773  0.43101  Biso   1.000  Ir
  Ir46     1.0000 0.78714  0.43227  0.43101  Biso   1.000  Ir
  Ir47     1.0000 0.71286  0.43227  0.56899  Biso   1.000  Ir
  Ir48     1.0000 0.78714  0.56773  0.56899  Biso   1.000  Ir
  Ir49     1.0000 0.28714  0.43227  0.56899  Biso   1.000  Ir
  Ir50     1.0000 0.21286  0.56773  0.56899  Biso   1.000  Ir
  Ir51     1.0000 0.28714  0.56773  0.43101  Biso   1.000  Ir
  Ir52     1.0000 0.21286  0.43227  0.43101  Biso   1.000  Ir
  Ir53     1.0000 0.00000  0.03354  0.43218  Biso   1.000  Ir
  Ir54     1.0000 0.00000  0.46646  0.43218  Biso   1.000  Ir
  Ir55     1.0000 0.00000  0.96646  0.56782  Biso   1.000  Ir
  Ir56     1.0000 0.00000  0.53354  0.56782  Biso   1.000  Ir
  Ir57     1.0000 0.50000  0.45125  0.30820  Biso   1.000  Ir
  Ir58     1.0000 0.50000  0.04875  0.30820  Biso   1.000  Ir
  Ir59     1.0000 0.50000  0.54875  0.69180  Biso   1.000  Ir
  Ir60     1.0000 0.50000  0.95125  0.69180  Biso   1.000  Ir
  Ir61     1.0000 0.18689  0.12819  0.93605  Biso   1.000  Ir
  Ir62     1.0000 0.31311  0.87181  0.93605  Biso   1.000  Ir
  Ir63     1.0000 0.18689  0.87181  0.06395  Biso   1.000  Ir
  Ir64     1.0000 0.31311  0.12819  0.06395  Biso   1.000  Ir
  Ir65     1.0000 0.81311  0.87181  0.06395  Biso   1.000  Ir
  Ir66     1.0000 0.68689  0.12819  0.06395  Biso   1.000  Ir
  Ir67     1.0000 0.81311  0.12819  0.93605  Biso   1.000  Ir
  Ir68     1.0000 0.68689  0.87181  0.93605  Biso   1.000  Ir
  Ir69     1.0000 0.78879  0.06682  0.18480  Biso   1.000  Ir
  Ir70     1.0000 0.71121  0.93318  0.18480  Biso   1.000  Ir
  Ir71     1.0000 0.78879  0.93318  0.81520  Biso   1.000  Ir
  Ir72     1.0000 0.71121  0.06682  0.81520  Biso   1.000  Ir
  Ir73     1.0000 0.21121  0.93318  0.81520  Biso   1.000  Ir
  Ir74     1.0000 0.28879  0.06682  0.81520  Biso   1.000  Ir
  Ir75     1.0000 0.21121  0.06682  0.18480  Biso   1.000  Ir
  Ir76     1.0000 0.28879  0.93318  0.18480  Biso   1.000  Ir
  Ir77     1.0000 0.50000  0.94951  0.94586  Biso   1.000  Ir
  Ir78     1.0000 0.50000  0.55049  0.94586  Biso   1.000  Ir
  Ir79     1.0000 0.50000  0.05049  0.05414  Biso   1.000  Ir
  Ir80     1.0000 0.50000  0.44951  0.05414  Biso   1.000  Ir
  Ir81     1.0000 0.50000  0.47180  0.81891  Biso   1.000  Ir
  Ir82     1.0000 0.50000  0.02820  0.81891  Biso   1.000  Ir
  Ir83     1.0000 0.50000  0.52820  0.18109  Biso   1.000  Ir
  Ir84     1.0000 0.50000  0.97180  0.18109  Biso   1.000  Ir
  Ir85     1.0000 0.61405  0.75000  0.87632  Biso   1.000  Ir
  Ir86     1.0000 0.38595  0.75000  0.87632  Biso   1.000  Ir
  Ir87     1.0000 0.61405  0.25000  0.12368  Biso   1.000  Ir
  Ir88     1.0000 0.38595  0.25000  0.12368  Biso   1.000  Ir
  Ir89     1.0000 0.80728  0.12444  0.69287  Biso   1.000  Ir
  Ir90     1.0000 0.69272  0.87556  0.69287  Biso   1.000  Ir
  Ir91     1.0000 0.80728  0.87556  0.30713  Biso   1.000  Ir
  Ir92     1.0000 0.69272  0.12444  0.30713  Biso   1.000  Ir
  Ir93     1.0000 0.19272  0.87556  0.30713  Biso   1.000  Ir
  Ir94     1.0000 0.30728  0.12444  0.30713  Biso   1.000  Ir
  Ir95     1.0000 0.19272  0.12444  0.69287  Biso   1.000  Ir
  Ir96     1.0000 0.30728  0.87556  0.69287  Biso   1.000  Ir
  Ir97     1.0000 0.38438  0.75000  0.72370  Biso   1.000  Ir
  Ir98     1.0000 0.61562  0.75000  0.72370  Biso   1.000  Ir
  Ir99     1.0000 0.38438  0.25000  0.27630  Biso   1.000  Ir
  Ir100    1.0000 0.61562  0.25000  0.27630  Biso   1.000  Ir
  Ir101    1.0000 0.21286  0.06773  0.43101  Biso   1.000  Ir
  Ir102    1.0000 0.28714  0.93227  0.43101  Biso   1.000  Ir
  Ir103    1.0000 0.21286  0.93227  0.56899  Biso   1.000  Ir
  Ir104    1.0000 0.28714  0.06773  0.56899  Biso   1.000  Ir
  Ir105    1.0000 0.78714  0.93227  0.56899  Biso   1.000  Ir
  Ir106    1.0000 0.71286  0.06773  0.56899  Biso   1.000  Ir
  Ir107    1.0000 0.78714  0.06773  0.43101  Biso   1.000  Ir
  Ir108    1.0000 0.71286  0.93227  0.43101  Biso   1.000  Ir
  Ir109    1.0000 0.50000  0.53354  0.43218  Biso   1.000  Ir
  Ir110    1.0000 0.50000  0.96646  0.43218  Biso   1.000  Ir
  Ir111    1.0000 0.50000  0.46646  0.56782  Biso   1.000  Ir
  Ir112    1.0000 0.50000  0.03354  0.56782  Biso   1.000  Ir
