data_image0
_cell_length_a       10.5277
_cell_length_b       3.13459
_cell_length_c       6.70121
_cell_angle_alpha    90
_cell_angle_beta     93.9476
_cell_angle_gamma    90

_symmetry_space_group_name_H-M    "P 1"
_symmetry_int_tables_number       1

loop_
  _symmetry_equiv_pos_as_xyz
  'x, y, z'

loop_
  _atom_site_label
  _atom_site_occupancy
  _atom_site_fract_x
  _atom_site_fract_y
  _atom_site_fract_z
  _atom_site_thermal_displace_type
  _atom_site_B_iso_or_equiv
  _atom_site_type_symbol
  O1       1.0000 0.21881  0.50000  0.92908  Biso   1.000  O
  O2       1.0000 0.37052  0.00000  0.63015  Biso   1.000  O
  O3       1.0000 0.15127  0.50000  0.36572  Biso   1.000  O
  O4       1.0000 0.49405  0.50000  0.02514  Biso   1.000  O
  O5       1.0000 0.71881  0.00000  0.92908  Biso   1.000  O
  O6       1.0000 0.87052  0.50000  0.63015  Biso   1.000  O
  O7       1.0000 0.65127  0.00000  0.36572  Biso   1.000  O
  O8       1.0000 0.99404  0.00000  0.02514  Biso   1.000  O
  Ir1      1.0000 0.08246  0.00000  0.65273  Biso   1.000  Ir
  Ir2      1.0000 0.34956  0.00000  0.23052  Biso   1.000  Ir
  Ir3      1.0000 0.58246  0.50000  0.65273  Biso   1.000  Ir
  Ir4      1.0000 0.84956  0.50000  0.23052  Biso   1.000  Ir
