data_image0
_cell_length_a       11.2067
_cell_length_b       19.4248
_cell_length_c       29.4931
_cell_angle_alpha    98.7926
_cell_angle_beta     91.7523
_cell_angle_gamma    94.5705

_symmetry_space_group_name_H-M    "P 1"
_symmetry_int_tables_number       1

loop_
  _symmetry_equiv_pos_as_xyz
  'x, y, z'

loop_
  _atom_site_label
  _atom_site_occupancy
  _atom_site_fract_x
  _atom_site_fract_y
  _atom_site_fract_z
  _atom_site_thermal_displace_type
  _atom_site_B_iso_or_equiv
  _atom_site_type_symbol
  O1       1.0000 0.20278  0.80053  0.86806  Biso   1.000  O
  O2       1.0000 0.45252  0.99403  0.57944  Biso   1.000  O
  O3       1.0000 0.05661  0.14668  0.02614  Biso   1.000  O
  O4       1.0000 0.80161  0.20143  0.13179  Biso   1.000  O
  O5       1.0000 0.13172  0.14817  0.61096  Biso   1.000  O
  O6       1.0000 0.02124  0.47674  0.09030  Biso   1.000  O
  O7       1.0000 0.73360  0.82835  0.54825  Biso   1.000  O
  O8       1.0000 0.20748  0.59687  0.18725  Biso   1.000  O
  O9       1.0000 0.42150  0.30986  0.20536  Biso   1.000  O
  O10      1.0000 0.98117  0.52309  0.90940  Biso   1.000  O
  O11      1.0000 0.29438  0.14732  0.11226  Biso   1.000  O
  O12      1.0000 0.94331  0.85209  0.97366  Biso   1.000  O
  O13      1.0000 0.87559  0.62517  0.49589  Biso   1.000  O
  O14      1.0000 0.45543  0.46549  0.90801  Biso   1.000  O
  O15      1.0000 0.06841  0.34020  0.60310  Biso   1.000  O
  O16      1.0000 0.70710  0.85136  0.88776  Biso   1.000  O
  O17      1.0000 0.26615  0.30997  0.39264  Biso   1.000  O
  O18      1.0000 0.12792  0.37388  0.50372  Biso   1.000  O
  O19      1.0000 0.88815  0.99275  0.07919  Biso   1.000  O
  O20      1.0000 0.54295  0.14756  0.52531  Biso   1.000  O
  O21      1.0000 0.54847  0.53513  0.09184  Biso   1.000  O
  O22      1.0000 0.55614  0.00656  0.42021  Biso   1.000  O
  O23      1.0000 0.19650  0.78611  0.56146  Biso   1.000  O
  O24      1.0000 0.75521  0.31020  0.89381  Biso   1.000  O
  O25      1.0000 0.56422  0.34030  0.10425  Biso   1.000  O
  O26      1.0000 0.22583  0.52377  0.41045  Biso   1.000  O
  O27      1.0000 0.80371  0.21536  0.43810  Biso   1.000  O
  O28      1.0000 0.48491  0.40278  0.31267  Biso   1.000  O
  O29      1.0000 0.24552  0.69039  0.10673  Biso   1.000  O
  O30      1.0000 0.10943  0.00743  0.92070  Biso   1.000  O
  O31      1.0000 0.74140  0.37438  0.00478  Biso   1.000  O
  O32      1.0000 0.36143  0.79800  0.36912  Biso   1.000  O
  O33      1.0000 0.03428  0.21590  0.93936  Biso   1.000  O
  O34      1.0000 0.96574  0.78405  0.06065  Biso   1.000  O
  O35      1.0000 0.75380  0.50132  0.23554  Biso   1.000  O
  O36      1.0000 0.50088  0.17127  0.95199  Biso   1.000  O
  O37      1.0000 0.79871  0.39940  0.81214  Biso   1.000  O
  O38      1.0000 0.29935  0.53600  0.59225  Biso   1.000  O
  O39      1.0000 0.49850  0.82949  0.04878  Biso   1.000  O
  O40      1.0000 0.86921  0.85074  0.38702  Biso   1.000  O
  O41      1.0000 0.69700  0.46416  0.40827  Biso   1.000  O
  O42      1.0000 0.97973  0.31005  0.70458  Biso   1.000  O
  O43      1.0000 0.43336  0.65938  0.89531  Biso   1.000  O
  O44      1.0000 0.77137  0.47443  0.58873  Biso   1.000  O
  O45      1.0000 0.52184  0.59776  0.68685  Biso   1.000  O
  O46      1.0000 0.22272  0.49775  0.26471  Biso   1.000  O
  O47      1.0000 0.02831  0.68876  0.29453  Biso   1.000  O
  O48      1.0000 0.46232  0.85392  0.47438  Biso   1.000  O
  O49      1.0000 0.93119  0.65954  0.39650  Biso   1.000  O
  O50      1.0000 0.26730  0.17023  0.45064  Biso   1.000  O
  O51      1.0000 0.57668  0.68966  0.79421  Biso   1.000  O
  O52      1.0000 0.73508  0.68931  0.60675  Biso   1.000  O
  O53      1.0000 0.63850  0.20256  0.63109  Biso   1.000  O
  O54      1.0000 0.76427  0.49750  0.73584  Biso   1.000  O
  O55      1.0000 0.26170  0.62592  0.99530  Biso   1.000  O
  O56      1.0000 0.23852  0.50153  0.76394  Biso   1.000  O
  Ir1      1.0000 0.41603  0.42554  0.38093  Biso   1.000  Ir
  Ir2      1.0000 0.75602  0.26764  0.94762  Biso   1.000  Ir
  Ir3      1.0000 0.99051  0.87846  0.91332  Biso   1.000  Ir
  Ir4      1.0000 0.01076  0.12146  0.08670  Biso   1.000  Ir
  Ir5      1.0000 0.75038  0.42485  0.88071  Biso   1.000  Ir
  Ir6      1.0000 0.06555  0.43127  0.57202  Biso   1.000  Ir
  Ir7      1.0000 0.71964  0.43161  0.07305  Biso   1.000  Ir
  Ir8      1.0000 0.88428  0.73228  0.55289  Biso   1.000  Ir
  Ir9      1.0000 0.52456  0.57120  0.74507  Biso   1.000  Ir
  Ir10     1.0000 0.04744  0.74853  0.36167  Biso   1.000  Ir
  Ir11     1.0000 0.94421  0.42765  0.75428  Biso   1.000  Ir
  Ir12     1.0000 0.24398  0.73253  0.05268  Biso   1.000  Ir
  Ir13     1.0000 0.25246  0.57494  0.11904  Biso   1.000  Ir
  Ir14     1.0000 0.44103  0.12228  0.58591  Biso   1.000  Ir
  Ir15     1.0000 0.28218  0.56856  0.92697  Biso   1.000  Ir
  Ir16     1.0000 0.56233  0.87797  0.41347  Biso   1.000  Ir
  Ir17     1.0000 0.58392  0.57376  0.61846  Biso   1.000  Ir
  Ir18     1.0000 0.05406  0.57024  0.24512  Biso   1.000  Ir
  Ir19     1.0000 0.52129  0.25012  0.13842  Biso   1.000  Ir
  Ir20     1.0000 0.54307  0.13481  0.45872  Biso   1.000  Ir
  Ir21     1.0000 0.45965  0.86553  0.54083  Biso   1.000  Ir
  Ir22     1.0000 0.11710  0.26695  0.44650  Biso   1.000  Ir
  Ir23     1.0000 0.93344  0.56803  0.42749  Biso   1.000  Ir
  Ir24     1.0000 0.17391  0.13530  0.95960  Biso   1.000  Ir
  Ir25     1.0000 0.82552  0.86462  0.04037  Biso   1.000  Ir
  Ir26     1.0000 0.47262  0.42848  0.25462  Biso   1.000  Ir
  Ir27     1.0000 0.47946  0.74973  0.86128  Biso   1.000  Ir
  Ir28     1.0000 0.95417  0.25062  0.63759  Biso   1.000  Ir
