data_image0
_cell_length_a       8.23952
_cell_length_b       9.70056
_cell_length_c       6.42464
_cell_angle_alpha    90
_cell_angle_beta     96.8786
_cell_angle_gamma    90

_symmetry_space_group_name_H-M    "P 1"
_symmetry_int_tables_number       1

loop_
  _symmetry_equiv_pos_as_xyz
  'x, y, z'

loop_
  _atom_site_label
  _atom_site_occupancy
  _atom_site_fract_x
  _atom_site_fract_y
  _atom_site_fract_z
  _atom_site_thermal_displace_type
  _atom_site_B_iso_or_equiv
  _atom_site_type_symbol
  O1       1.0000 0.16897  0.06331  0.91707  Biso   1.000  O
  O2       1.0000 0.83103  0.06331  0.08294  Biso   1.000  O
  O3       1.0000 0.35044  0.80611  0.76890  Biso   1.000  O
  O4       1.0000 0.64956  0.80611  0.23111  Biso   1.000  O
  O5       1.0000 0.50274  0.12019  0.75040  Biso   1.000  O
  O6       1.0000 0.49726  0.12019  0.24960  Biso   1.000  O
  O7       1.0000 0.81402  0.00863  0.57690  Biso   1.000  O
  O8       1.0000 0.18598  0.00863  0.42310  Biso   1.000  O
  O9       1.0000 0.66897  0.56331  0.91707  Biso   1.000  O
  O10      1.0000 0.33103  0.56331  0.08294  Biso   1.000  O
  O11      1.0000 0.85044  0.30611  0.76890  Biso   1.000  O
  O12      1.0000 0.14956  0.30611  0.23111  Biso   1.000  O
  O13      1.0000 0.00274  0.62019  0.75040  Biso   1.000  O
  O14      1.0000 0.99726  0.62019  0.24960  Biso   1.000  O
  O15      1.0000 0.31402  0.50863  0.57690  Biso   1.000  O
  O16      1.0000 0.68598  0.50863  0.42310  Biso   1.000  O
  Ir1      1.0000 0.75203  0.12456  0.79619  Biso   1.000  Ir
  Ir2      1.0000 0.24797  0.12456  0.20381  Biso   1.000  Ir
  Ir3      1.0000 0.30171  0.00108  0.71283  Biso   1.000  Ir
  Ir4      1.0000 0.69829  0.00108  0.28717  Biso   1.000  Ir
  Ir5      1.0000 0.25203  0.62456  0.79619  Biso   1.000  Ir
  Ir6      1.0000 0.74797  0.62456  0.20381  Biso   1.000  Ir
  Ir7      1.0000 0.80171  0.50108  0.71283  Biso   1.000  Ir
  Ir8      1.0000 0.19829  0.50108  0.28717  Biso   1.000  Ir
