data_image0
_cell_length_a       16.9885
_cell_length_b       6.23316
_cell_length_c       31.2712
_cell_angle_alpha    90
_cell_angle_beta     90
_cell_angle_gamma    90

_symmetry_space_group_name_H-M    "P 1"
_symmetry_int_tables_number       1

loop_
  _symmetry_equiv_pos_as_xyz
  'x, y, z'

loop_
  _atom_site_label
  _atom_site_occupancy
  _atom_site_fract_x
  _atom_site_fract_y
  _atom_site_fract_z
  _atom_site_thermal_displace_type
  _atom_site_B_iso_or_equiv
  _atom_site_type_symbol
  O1       1.0000 0.00000  0.43336  0.75268  Biso   1.000  O
  O2       1.0000 0.50000  0.56664  0.25268  Biso   1.000  O
  O3       1.0000 0.18207  0.76443  0.41446  Biso   1.000  O
  O4       1.0000 0.31793  0.23557  0.91446  Biso   1.000  O
  O5       1.0000 0.68207  0.23557  0.91446  Biso   1.000  O
  O6       1.0000 0.81793  0.76443  0.41446  Biso   1.000  O
  O7       1.0000 0.73532  0.04188  0.15662  Biso   1.000  O
  O8       1.0000 0.76468  0.95812  0.65662  Biso   1.000  O
  O9       1.0000 0.23532  0.95812  0.65662  Biso   1.000  O
  O10      1.0000 0.26468  0.04188  0.15662  Biso   1.000  O
  O11      1.0000 0.00000  0.93460  0.72322  Biso   1.000  O
  O12      1.0000 0.50000  0.06540  0.22322  Biso   1.000  O
  O13      1.0000 0.09539  0.19917  0.18825  Biso   1.000  O
  O14      1.0000 0.40461  0.80083  0.68825  Biso   1.000  O
  O15      1.0000 0.59539  0.80083  0.68825  Biso   1.000  O
  O16      1.0000 0.90461  0.19917  0.18825  Biso   1.000  O
  O17      1.0000 0.59376  0.70642  0.16938  Biso   1.000  O
  O18      1.0000 0.90624  0.29358  0.66938  Biso   1.000  O
  O19      1.0000 0.09376  0.29358  0.66938  Biso   1.000  O
  O20      1.0000 0.40624  0.70642  0.16938  Biso   1.000  O
  O21      1.0000 0.25138  0.57853  0.84764  Biso   1.000  O
  O22      1.0000 0.24862  0.42147  0.34764  Biso   1.000  O
  O23      1.0000 0.75138  0.42147  0.34764  Biso   1.000  O
  O24      1.0000 0.74862  0.57853  0.84764  Biso   1.000  O
  O25      1.0000 0.59274  0.31200  0.82614  Biso   1.000  O
  O26      1.0000 0.90726  0.68800  0.32614  Biso   1.000  O
  O27      1.0000 0.09274  0.68800  0.32614  Biso   1.000  O
  O28      1.0000 0.40726  0.31200  0.82614  Biso   1.000  O
  O29      1.0000 0.31811  0.74304  0.07969  Biso   1.000  O
  O30      1.0000 0.18189  0.25696  0.57969  Biso   1.000  O
  O31      1.0000 0.81811  0.25696  0.57969  Biso   1.000  O
  O32      1.0000 0.68189  0.74304  0.07969  Biso   1.000  O
  O33      1.0000 0.75203  0.26933  0.24910  Biso   1.000  O
  O34      1.0000 0.74797  0.73067  0.74910  Biso   1.000  O
  O35      1.0000 0.25203  0.73067  0.74910  Biso   1.000  O
  O36      1.0000 0.24798  0.26933  0.24910  Biso   1.000  O
  O37      1.0000 0.76040  0.07944  0.82536  Biso   1.000  O
  O38      1.0000 0.73960  0.92056  0.32536  Biso   1.000  O
  O39      1.0000 0.26040  0.92056  0.32536  Biso   1.000  O
  O40      1.0000 0.23960  0.07944  0.82536  Biso   1.000  O
  O41      1.0000 0.00000  0.29574  0.55075  Biso   1.000  O
  O42      1.0000 0.50000  0.70426  0.05075  Biso   1.000  O
  O43      1.0000 0.36480  0.40669  0.00801  Biso   1.000  O
  O44      1.0000 0.13520  0.59331  0.50801  Biso   1.000  O
  O45      1.0000 0.86480  0.59331  0.50801  Biso   1.000  O
  O46      1.0000 0.63520  0.40669  0.00801  Biso   1.000  O
  O47      1.0000 0.00000  0.77147  0.44451  Biso   1.000  O
  O48      1.0000 0.50000  0.22853  0.94451  Biso   1.000  O
  O49      1.0000 0.09432  0.77984  0.80722  Biso   1.000  O
  O50      1.0000 0.40569  0.22016  0.30722  Biso   1.000  O
  O51      1.0000 0.59432  0.22016  0.30722  Biso   1.000  O
  O52      1.0000 0.90569  0.77984  0.80722  Biso   1.000  O
  O53      1.0000 0.00000  0.54732  0.24227  Biso   1.000  O
  O54      1.0000 0.50000  0.45268  0.74227  Biso   1.000  O
  O55      1.0000 0.12854  0.09334  0.48628  Biso   1.000  O
  O56      1.0000 0.37146  0.90666  0.98628  Biso   1.000  O
  O57      1.0000 0.62854  0.90666  0.98628  Biso   1.000  O
  O58      1.0000 0.87146  0.09334  0.48628  Biso   1.000  O
  O59      1.0000 0.00000  0.04579  0.27174  Biso   1.000  O
  O60      1.0000 0.50000  0.95421  0.77174  Biso   1.000  O
  O61      1.0000 0.72795  0.45943  0.66190  Biso   1.000  O
  O62      1.0000 0.77205  0.54057  0.16190  Biso   1.000  O
  O63      1.0000 0.22795  0.54057  0.16190  Biso   1.000  O
  O64      1.0000 0.27205  0.45943  0.66190  Biso   1.000  O
  Ir1      1.0000 0.00000  0.23574  0.70375  Biso   1.000  Ir
  Ir2      1.0000 0.50000  0.76426  0.20375  Biso   1.000  Ir
  Ir3      1.0000 0.30407  0.75630  0.14199  Biso   1.000  Ir
  Ir4      1.0000 0.19593  0.24370  0.64199  Biso   1.000  Ir
  Ir5      1.0000 0.80407  0.24370  0.64199  Biso   1.000  Ir
  Ir6      1.0000 0.69593  0.75630  0.14199  Biso   1.000  Ir
  Ir7      1.0000 0.70998  0.20977  0.30681  Biso   1.000  Ir
  Ir8      1.0000 0.79002  0.79023  0.80681  Biso   1.000  Ir
  Ir9      1.0000 0.20998  0.79023  0.80681  Biso   1.000  Ir
  Ir10     1.0000 0.29002  0.20977  0.30681  Biso   1.000  Ir
  Ir11     1.0000 0.61088  0.19561  0.96318  Biso   1.000  Ir
  Ir12     1.0000 0.88913  0.80439  0.46318  Biso   1.000  Ir
  Ir13     1.0000 0.11088  0.80439  0.46318  Biso   1.000  Ir
  Ir14     1.0000 0.38913  0.19561  0.96318  Biso   1.000  Ir
  Ir15     1.0000 0.30392  0.29906  0.85348  Biso   1.000  Ir
  Ir16     1.0000 0.19608  0.70094  0.35348  Biso   1.000  Ir
  Ir17     1.0000 0.80392  0.70094  0.35348  Biso   1.000  Ir
  Ir18     1.0000 0.69608  0.29906  0.85348  Biso   1.000  Ir
  Ir19     1.0000 0.00000  0.24674  0.22272  Biso   1.000  Ir
  Ir20     1.0000 0.50000  0.75326  0.72272  Biso   1.000  Ir
  Ir21     1.0000 0.88911  0.30815  0.53133  Biso   1.000  Ir
  Ir22     1.0000 0.61089  0.69185  0.03133  Biso   1.000  Ir
  Ir23     1.0000 0.38911  0.69185  0.03133  Biso   1.000  Ir
  Ir24     1.0000 0.11089  0.30815  0.53133  Biso   1.000  Ir
  Ir25     1.0000 0.00000  0.73347  0.77225  Biso   1.000  Ir
  Ir26     1.0000 0.50000  0.26653  0.27225  Biso   1.000  Ir
  Ir27     1.0000 0.20924  0.26177  0.18952  Biso   1.000  Ir
  Ir28     1.0000 0.29076  0.73823  0.68952  Biso   1.000  Ir
  Ir29     1.0000 0.70924  0.73823  0.68952  Biso   1.000  Ir
  Ir30     1.0000 0.79076  0.26177  0.18952  Biso   1.000  Ir
  Ir31     1.0000 0.00000  0.74485  0.29128  Biso   1.000  Ir
  Ir32     1.0000 0.50000  0.25515  0.79128  Biso   1.000  Ir
