data_image0
_cell_length_a       10.5339
_cell_length_b       10.5339
_cell_length_c       33.7067
_cell_angle_alpha    90
_cell_angle_beta     90
_cell_angle_gamma    90

_symmetry_space_group_name_H-M    "P 1"
_symmetry_int_tables_number       1

loop_
  _symmetry_equiv_pos_as_xyz
  'x, y, z'

loop_
  _atom_site_label
  _atom_site_occupancy
  _atom_site_fract_x
  _atom_site_fract_y
  _atom_site_fract_z
  _atom_site_thermal_displace_type
  _atom_site_B_iso_or_equiv
  _atom_site_type_symbol
  O1       1.0000 0.88822  0.60403  0.78406  Biso   1.000  O
  O2       1.0000 0.11178  0.39597  0.78406  Biso   1.000  O
  O3       1.0000 0.39597  0.88822  0.78406  Biso   1.000  O
  O4       1.0000 0.60403  0.11178  0.78406  Biso   1.000  O
  O5       1.0000 0.11178  0.60403  0.21594  Biso   1.000  O
  O6       1.0000 0.88822  0.39597  0.21594  Biso   1.000  O
  O7       1.0000 0.60403  0.88822  0.21594  Biso   1.000  O
  O8       1.0000 0.39597  0.11178  0.21594  Biso   1.000  O
  O9       1.0000 0.61178  0.89597  0.71594  Biso   1.000  O
  O10      1.0000 0.38822  0.10403  0.71594  Biso   1.000  O
  O11      1.0000 0.10403  0.61178  0.71594  Biso   1.000  O
  O12      1.0000 0.89597  0.38822  0.71594  Biso   1.000  O
  O13      1.0000 0.38822  0.89597  0.28406  Biso   1.000  O
  O14      1.0000 0.61178  0.10403  0.28406  Biso   1.000  O
  O15      1.0000 0.89597  0.61178  0.28406  Biso   1.000  O
  O16      1.0000 0.10403  0.38822  0.28406  Biso   1.000  O
  O17      1.0000 0.68788  0.39224  0.80955  Biso   1.000  O
  O18      1.0000 0.31212  0.60776  0.80955  Biso   1.000  O
  O19      1.0000 0.60776  0.68788  0.80955  Biso   1.000  O
  O20      1.0000 0.39224  0.31212  0.80955  Biso   1.000  O
  O21      1.0000 0.31212  0.39224  0.19045  Biso   1.000  O
  O22      1.0000 0.68788  0.60776  0.19045  Biso   1.000  O
  O23      1.0000 0.39224  0.68788  0.19045  Biso   1.000  O
  O24      1.0000 0.60776  0.31212  0.19045  Biso   1.000  O
  O25      1.0000 0.81212  0.10777  0.69045  Biso   1.000  O
  O26      1.0000 0.18788  0.89224  0.69045  Biso   1.000  O
  O27      1.0000 0.89224  0.81212  0.69045  Biso   1.000  O
  O28      1.0000 0.10777  0.18788  0.69045  Biso   1.000  O
  O29      1.0000 0.18788  0.10777  0.30955  Biso   1.000  O
  O30      1.0000 0.81212  0.89224  0.30955  Biso   1.000  O
  O31      1.0000 0.10777  0.81212  0.30955  Biso   1.000  O
  O32      1.0000 0.89224  0.18788  0.30955  Biso   1.000  O
  O33      1.0000 0.80178  0.58319  0.87544  Biso   1.000  O
  O34      1.0000 0.19822  0.41681  0.87544  Biso   1.000  O
  O35      1.0000 0.41681  0.80178  0.87544  Biso   1.000  O
  O36      1.0000 0.58319  0.19822  0.87544  Biso   1.000  O
  O37      1.0000 0.19822  0.58319  0.12456  Biso   1.000  O
  O38      1.0000 0.80178  0.41681  0.12456  Biso   1.000  O
  O39      1.0000 0.58319  0.80178  0.12456  Biso   1.000  O
  O40      1.0000 0.41681  0.19822  0.12456  Biso   1.000  O
  O41      1.0000 0.69822  0.91681  0.62456  Biso   1.000  O
  O42      1.0000 0.30178  0.08319  0.62456  Biso   1.000  O
  O43      1.0000 0.08319  0.69822  0.62456  Biso   1.000  O
  O44      1.0000 0.91681  0.30178  0.62456  Biso   1.000  O
  O45      1.0000 0.30178  0.91681  0.37544  Biso   1.000  O
  O46      1.0000 0.69822  0.08319  0.37544  Biso   1.000  O
  O47      1.0000 0.91681  0.69822  0.37544  Biso   1.000  O
  O48      1.0000 0.08319  0.30178  0.37544  Biso   1.000  O
  O49      1.0000 0.10914  0.60755  0.03399  Biso   1.000  O
  O50      1.0000 0.89086  0.39245  0.03399  Biso   1.000  O
  O51      1.0000 0.39245  0.10914  0.03399  Biso   1.000  O
  O52      1.0000 0.60755  0.89086  0.03399  Biso   1.000  O
  O53      1.0000 0.89086  0.60755  0.96601  Biso   1.000  O
  O54      1.0000 0.10914  0.39245  0.96601  Biso   1.000  O
  O55      1.0000 0.60755  0.10914  0.96601  Biso   1.000  O
  O56      1.0000 0.39245  0.89086  0.96601  Biso   1.000  O
  O57      1.0000 0.39086  0.89245  0.46601  Biso   1.000  O
  O58      1.0000 0.60914  0.10755  0.46601  Biso   1.000  O
  O59      1.0000 0.10755  0.39086  0.46601  Biso   1.000  O
  O60      1.0000 0.89245  0.60914  0.46601  Biso   1.000  O
  O61      1.0000 0.60914  0.89245  0.53399  Biso   1.000  O
  O62      1.0000 0.39086  0.10755  0.53399  Biso   1.000  O
  O63      1.0000 0.89245  0.39086  0.53399  Biso   1.000  O
  O64      1.0000 0.10755  0.60914  0.53399  Biso   1.000  O
  O65      1.0000 0.68817  0.39324  0.94172  Biso   1.000  O
  O66      1.0000 0.31183  0.60676  0.94172  Biso   1.000  O
  O67      1.0000 0.60676  0.68817  0.94172  Biso   1.000  O
  O68      1.0000 0.39324  0.31183  0.94172  Biso   1.000  O
  O69      1.0000 0.31183  0.39324  0.05828  Biso   1.000  O
  O70      1.0000 0.68817  0.60676  0.05828  Biso   1.000  O
  O71      1.0000 0.39324  0.68817  0.05828  Biso   1.000  O
  O72      1.0000 0.60676  0.31183  0.05828  Biso   1.000  O
  O73      1.0000 0.81183  0.10676  0.55828  Biso   1.000  O
  O74      1.0000 0.18817  0.89324  0.55828  Biso   1.000  O
  O75      1.0000 0.89324  0.81183  0.55828  Biso   1.000  O
  O76      1.0000 0.10676  0.18817  0.55828  Biso   1.000  O
  O77      1.0000 0.18817  0.10676  0.44172  Biso   1.000  O
  O78      1.0000 0.81183  0.89324  0.44172  Biso   1.000  O
  O79      1.0000 0.10676  0.81183  0.44172  Biso   1.000  O
  O80      1.0000 0.89324  0.18817  0.44172  Biso   1.000  O
  Ir1      1.0000 0.74575  0.56700  0.81987  Biso   1.000  Ir
  Ir2      1.0000 0.25425  0.43300  0.81987  Biso   1.000  Ir
  Ir3      1.0000 0.43300  0.74575  0.81987  Biso   1.000  Ir
  Ir4      1.0000 0.56700  0.25425  0.81987  Biso   1.000  Ir
  Ir5      1.0000 0.25425  0.56700  0.18013  Biso   1.000  Ir
  Ir6      1.0000 0.74575  0.43300  0.18013  Biso   1.000  Ir
  Ir7      1.0000 0.56700  0.74575  0.18013  Biso   1.000  Ir
  Ir8      1.0000 0.43300  0.25425  0.18013  Biso   1.000  Ir
  Ir9      1.0000 0.75425  0.93300  0.68013  Biso   1.000  Ir
  Ir10     1.0000 0.24575  0.06700  0.68013  Biso   1.000  Ir
  Ir11     1.0000 0.06700  0.75425  0.68013  Biso   1.000  Ir
  Ir12     1.0000 0.93300  0.24575  0.68013  Biso   1.000  Ir
  Ir13     1.0000 0.24575  0.93300  0.31987  Biso   1.000  Ir
  Ir14     1.0000 0.75425  0.06700  0.31987  Biso   1.000  Ir
  Ir15     1.0000 0.93300  0.75425  0.31987  Biso   1.000  Ir
  Ir16     1.0000 0.06700  0.24575  0.31987  Biso   1.000  Ir
  Ir17     1.0000 0.56844  0.25370  0.93109  Biso   1.000  Ir
  Ir18     1.0000 0.43157  0.74630  0.93109  Biso   1.000  Ir
  Ir19     1.0000 0.74630  0.56844  0.93109  Biso   1.000  Ir
  Ir20     1.0000 0.25370  0.43157  0.93109  Biso   1.000  Ir
  Ir21     1.0000 0.43157  0.25370  0.06891  Biso   1.000  Ir
  Ir22     1.0000 0.56844  0.74630  0.06891  Biso   1.000  Ir
  Ir23     1.0000 0.25370  0.56844  0.06891  Biso   1.000  Ir
  Ir24     1.0000 0.74630  0.43157  0.06891  Biso   1.000  Ir
  Ir25     1.0000 0.93157  0.24630  0.56891  Biso   1.000  Ir
  Ir26     1.0000 0.06843  0.75370  0.56891  Biso   1.000  Ir
  Ir27     1.0000 0.75370  0.93157  0.56891  Biso   1.000  Ir
  Ir28     1.0000 0.24630  0.06843  0.56891  Biso   1.000  Ir
  Ir29     1.0000 0.06843  0.24630  0.43109  Biso   1.000  Ir
  Ir30     1.0000 0.93157  0.75370  0.43109  Biso   1.000  Ir
  Ir31     1.0000 0.24630  0.93157  0.43109  Biso   1.000  Ir
  Ir32     1.0000 0.75370  0.06843  0.43109  Biso   1.000  Ir
  Ir33     1.0000 0.50000  0.00000  0.25000  Biso   1.000  Ir
  Ir34     1.0000 0.00000  0.50000  0.25000  Biso   1.000  Ir
  Ir35     1.0000 0.50000  0.00000  0.75000  Biso   1.000  Ir
  Ir36     1.0000 0.00000  0.50000  0.75000  Biso   1.000  Ir
  Ir37     1.0000 0.50000  0.00000  0.00000  Biso   1.000  Ir
  Ir38     1.0000 0.00000  0.50000  0.00000  Biso   1.000  Ir
  Ir39     1.0000 0.00000  0.50000  0.50000  Biso   1.000  Ir
  Ir40     1.0000 0.50000  0.00000  0.50000  Biso   1.000  Ir
