data_image0
_cell_length_a       5.58914
_cell_length_b       4.86906
_cell_length_c       8.11248
_cell_angle_alpha    90
_cell_angle_beta     90
_cell_angle_gamma    90

_symmetry_space_group_name_H-M    "P 1"
_symmetry_int_tables_number       1

loop_
  _symmetry_equiv_pos_as_xyz
  'x, y, z'

loop_
  _atom_site_label
  _atom_site_occupancy
  _atom_site_fract_x
  _atom_site_fract_y
  _atom_site_fract_z
  _atom_site_thermal_displace_type
  _atom_site_B_iso_or_equiv
  _atom_site_type_symbol
  O1       1.0000 0.50000  0.73746  0.16773  Biso   1.000  O
  O2       1.0000 0.50000  0.26254  0.66773  Biso   1.000  O
  O3       1.0000 0.24908  0.15690  0.33734  Biso   1.000  O
  O4       1.0000 0.75092  0.84311  0.83734  Biso   1.000  O
  O5       1.0000 0.24908  0.84311  0.83734  Biso   1.000  O
  O6       1.0000 0.75092  0.15690  0.33734  Biso   1.000  O
  O7       1.0000 0.00000  0.62344  0.46300  Biso   1.000  O
  O8       1.0000 0.00000  0.37656  0.96300  Biso   1.000  O
  Ir1      1.0000 0.00000  0.74234  0.00624  Biso   1.000  Ir
  Ir2      1.0000 0.00000  0.25766  0.50624  Biso   1.000  Ir
  Ir3      1.0000 0.50000  0.87192  0.37814  Biso   1.000  Ir
  Ir4      1.0000 0.50000  0.12808  0.87814  Biso   1.000  Ir
