data_image0
_cell_length_a       12.2967
_cell_length_b       9.63377
_cell_length_c       5.90737
_cell_angle_alpha    90
_cell_angle_beta     90
_cell_angle_gamma    90

_symmetry_space_group_name_H-M    "P 1"
_symmetry_int_tables_number       1

loop_
  _symmetry_equiv_pos_as_xyz
  'x, y, z'

loop_
  _atom_site_label
  _atom_site_occupancy
  _atom_site_fract_x
  _atom_site_fract_y
  _atom_site_fract_z
  _atom_site_thermal_displace_type
  _atom_site_B_iso_or_equiv
  _atom_site_type_symbol
  O1       1.0000 0.00000  0.00000  0.59839  Biso   1.000  O
  O2       1.0000 0.00000  0.50000  0.09839  Biso   1.000  O
  O3       1.0000 0.92135  0.31223  0.67934  Biso   1.000  O
  O4       1.0000 0.07865  0.68777  0.67934  Biso   1.000  O
  O5       1.0000 0.92135  0.18777  0.17934  Biso   1.000  O
  O6       1.0000 0.07865  0.81223  0.17934  Biso   1.000  O
  O7       1.0000 0.25000  0.57029  0.04818  Biso   1.000  O
  O8       1.0000 0.75000  0.42972  0.04818  Biso   1.000  O
  O9       1.0000 0.50000  0.50000  0.09839  Biso   1.000  O
  O10      1.0000 0.50000  0.00000  0.59839  Biso   1.000  O
  O11      1.0000 0.42135  0.81223  0.17934  Biso   1.000  O
  O12      1.0000 0.57865  0.18777  0.17934  Biso   1.000  O
  O13      1.0000 0.42135  0.68777  0.67934  Biso   1.000  O
  O14      1.0000 0.57865  0.31223  0.67934  Biso   1.000  O
  O15      1.0000 0.75000  0.07029  0.54818  Biso   1.000  O
  O16      1.0000 0.25000  0.92972  0.54818  Biso   1.000  O
  Ir1      1.0000 0.89822  0.35797  0.00009  Biso   1.000  Ir
  Ir2      1.0000 0.10178  0.64203  0.00009  Biso   1.000  Ir
  Ir3      1.0000 0.89822  0.14203  0.50009  Biso   1.000  Ir
  Ir4      1.0000 0.10178  0.85797  0.50009  Biso   1.000  Ir
  Ir5      1.0000 0.39822  0.85797  0.50009  Biso   1.000  Ir
  Ir6      1.0000 0.60178  0.14203  0.50009  Biso   1.000  Ir
  Ir7      1.0000 0.39822  0.64203  0.00009  Biso   1.000  Ir
  Ir8      1.0000 0.60178  0.35797  0.00009  Biso   1.000  Ir
