data_image0
_cell_length_a       11.0754
_cell_length_b       11.0754
_cell_length_c       32.5565
_cell_angle_alpha    90
_cell_angle_beta     90
_cell_angle_gamma    120

_symmetry_space_group_name_H-M    "P 1"
_symmetry_int_tables_number       1

loop_
  _symmetry_equiv_pos_as_xyz
  'x, y, z'

loop_
  _atom_site_label
  _atom_site_occupancy
  _atom_site_fract_x
  _atom_site_fract_y
  _atom_site_fract_z
  _atom_site_thermal_displace_type
  _atom_site_B_iso_or_equiv
  _atom_site_type_symbol
  O1       1.0000 0.12610  0.52551  0.27754  Biso   1.000  O
  O2       1.0000 0.47449  0.60059  0.27754  Biso   1.000  O
  O3       1.0000 0.39941  0.87390  0.27754  Biso   1.000  O
  O4       1.0000 0.52551  0.12610  0.22246  Biso   1.000  O
  O5       1.0000 0.60059  0.47449  0.22246  Biso   1.000  O
  O6       1.0000 0.87390  0.39941  0.22246  Biso   1.000  O
  O7       1.0000 0.54056  0.80782  0.05579  Biso   1.000  O
  O8       1.0000 0.19218  0.73274  0.05579  Biso   1.000  O
  O9       1.0000 0.26726  0.45944  0.05579  Biso   1.000  O
  O10      1.0000 0.14115  0.20723  0.11087  Biso   1.000  O
  O11      1.0000 0.06608  0.85885  0.11087  Biso   1.000  O
  O12      1.0000 0.79277  0.93392  0.11087  Biso   1.000  O
  O13      1.0000 0.50000  0.00000  0.00000  Biso   1.000  O
  O14      1.0000 0.00000  0.50000  0.00000  Biso   1.000  O
  O15      1.0000 0.50000  0.50000  0.00000  Biso   1.000  O
  O16      1.0000 0.33333  0.16667  0.16667  Biso   1.000  O
  O17      1.0000 0.83333  0.66667  0.16667  Biso   1.000  O
  O18      1.0000 0.83333  0.16667  0.16667  Biso   1.000  O
  O19      1.0000 0.74406  0.00000  0.25000  Biso   1.000  O
  O20      1.0000 0.00000  0.74406  0.25000  Biso   1.000  O
  O21      1.0000 0.25594  0.25594  0.25000  Biso   1.000  O
  O22      1.0000 0.92261  0.33333  0.08333  Biso   1.000  O
  O23      1.0000 0.66667  0.58928  0.08333  Biso   1.000  O
  O24      1.0000 0.41072  0.07739  0.08333  Biso   1.000  O
  O25      1.0000 0.79277  0.85885  0.61087  Biso   1.000  O
  O26      1.0000 0.14115  0.93392  0.61087  Biso   1.000  O
  O27      1.0000 0.06608  0.20723  0.61087  Biso   1.000  O
  O28      1.0000 0.19218  0.45944  0.55579  Biso   1.000  O
  O29      1.0000 0.26726  0.80782  0.55579  Biso   1.000  O
  O30      1.0000 0.54056  0.73274  0.55579  Biso   1.000  O
  O31      1.0000 0.20723  0.14115  0.38913  Biso   1.000  O
  O32      1.0000 0.85885  0.06608  0.38913  Biso   1.000  O
  O33      1.0000 0.93392  0.79277  0.38913  Biso   1.000  O
  O34      1.0000 0.80782  0.54056  0.44421  Biso   1.000  O
  O35      1.0000 0.73274  0.19218  0.44421  Biso   1.000  O
  O36      1.0000 0.45944  0.26726  0.44421  Biso   1.000  O
  O37      1.0000 0.16667  0.33333  0.33333  Biso   1.000  O
  O38      1.0000 0.66667  0.83333  0.33333  Biso   1.000  O
  O39      1.0000 0.16667  0.83333  0.33333  Biso   1.000  O
  O40      1.0000 0.00000  0.50000  0.50000  Biso   1.000  O
  O41      1.0000 0.50000  0.00000  0.50000  Biso   1.000  O
  O42      1.0000 0.50000  0.50000  0.50000  Biso   1.000  O
  O43      1.0000 0.41072  0.33333  0.58333  Biso   1.000  O
  O44      1.0000 0.66667  0.07739  0.58333  Biso   1.000  O
  O45      1.0000 0.92261  0.58928  0.58333  Biso   1.000  O
  O46      1.0000 0.58928  0.66667  0.41667  Biso   1.000  O
  O47      1.0000 0.33333  0.92261  0.41667  Biso   1.000  O
  O48      1.0000 0.07739  0.41072  0.41667  Biso   1.000  O
  O49      1.0000 0.45944  0.19218  0.94421  Biso   1.000  O
  O50      1.0000 0.80782  0.26726  0.94421  Biso   1.000  O
  O51      1.0000 0.73274  0.54056  0.94421  Biso   1.000  O
  O52      1.0000 0.85885  0.79277  0.88913  Biso   1.000  O
  O53      1.0000 0.93392  0.14115  0.88913  Biso   1.000  O
  O54      1.0000 0.20723  0.06608  0.88913  Biso   1.000  O
  O55      1.0000 0.87390  0.47449  0.72246  Biso   1.000  O
  O56      1.0000 0.52551  0.39941  0.72246  Biso   1.000  O
  O57      1.0000 0.60059  0.12610  0.72246  Biso   1.000  O
  O58      1.0000 0.47449  0.87390  0.77754  Biso   1.000  O
  O59      1.0000 0.39941  0.52551  0.77754  Biso   1.000  O
  O60      1.0000 0.12610  0.60059  0.77754  Biso   1.000  O
  O61      1.0000 0.83333  0.66667  0.66667  Biso   1.000  O
  O62      1.0000 0.33333  0.16667  0.66667  Biso   1.000  O
  O63      1.0000 0.83333  0.16667  0.66667  Biso   1.000  O
  O64      1.0000 0.66667  0.83333  0.83333  Biso   1.000  O
  O65      1.0000 0.16667  0.33333  0.83333  Biso   1.000  O
  O66      1.0000 0.16667  0.83333  0.83333  Biso   1.000  O
  O67      1.0000 0.07739  0.66667  0.91667  Biso   1.000  O
  O68      1.0000 0.33333  0.41072  0.91667  Biso   1.000  O
  O69      1.0000 0.58928  0.92261  0.91667  Biso   1.000  O
  O70      1.0000 0.25594  0.00000  0.75000  Biso   1.000  O
  O71      1.0000 0.00000  0.25594  0.75000  Biso   1.000  O
  O72      1.0000 0.74406  0.74406  0.75000  Biso   1.000  O
  Ir1      1.0000 0.57653  0.83343  0.28413  Biso   1.000  Ir
  Ir2      1.0000 0.16657  0.74311  0.28413  Biso   1.000  Ir
  Ir3      1.0000 0.25689  0.42347  0.28413  Biso   1.000  Ir
  Ir4      1.0000 0.83343  0.57653  0.21587  Biso   1.000  Ir
  Ir5      1.0000 0.74311  0.16657  0.21587  Biso   1.000  Ir
  Ir6      1.0000 0.42347  0.25690  0.21587  Biso   1.000  Ir
  Ir7      1.0000 0.09013  0.49990  0.04920  Biso   1.000  Ir
  Ir8      1.0000 0.50010  0.59023  0.04920  Biso   1.000  Ir
  Ir9      1.0000 0.40977  0.90987  0.04920  Biso   1.000  Ir
  Ir10     1.0000 0.83324  0.75680  0.11746  Biso   1.000  Ir
  Ir11     1.0000 0.92356  0.16676  0.11746  Biso   1.000  Ir
  Ir12     1.0000 0.24320  0.07644  0.11746  Biso   1.000  Ir
  Ir13     1.0000 0.24320  0.16676  0.61746  Biso   1.000  Ir
  Ir14     1.0000 0.83324  0.07644  0.61746  Biso   1.000  Ir
  Ir15     1.0000 0.92356  0.75680  0.61746  Biso   1.000  Ir
  Ir16     1.0000 0.50010  0.90987  0.54920  Biso   1.000  Ir
  Ir17     1.0000 0.40977  0.49990  0.54920  Biso   1.000  Ir
  Ir18     1.0000 0.09013  0.59023  0.54920  Biso   1.000  Ir
  Ir19     1.0000 0.75680  0.83324  0.38254  Biso   1.000  Ir
  Ir20     1.0000 0.16676  0.92356  0.38254  Biso   1.000  Ir
  Ir21     1.0000 0.07644  0.24320  0.38254  Biso   1.000  Ir
  Ir22     1.0000 0.49990  0.09013  0.45080  Biso   1.000  Ir
  Ir23     1.0000 0.59023  0.50010  0.45080  Biso   1.000  Ir
  Ir24     1.0000 0.90987  0.40977  0.45080  Biso   1.000  Ir
  Ir25     1.0000 0.90987  0.50010  0.95080  Biso   1.000  Ir
  Ir26     1.0000 0.49990  0.40977  0.95080  Biso   1.000  Ir
  Ir27     1.0000 0.59023  0.09013  0.95080  Biso   1.000  Ir
  Ir28     1.0000 0.16676  0.24320  0.88254  Biso   1.000  Ir
  Ir29     1.0000 0.07644  0.83324  0.88254  Biso   1.000  Ir
  Ir30     1.0000 0.75680  0.92356  0.88254  Biso   1.000  Ir
  Ir31     1.0000 0.42347  0.16657  0.71587  Biso   1.000  Ir
  Ir32     1.0000 0.83343  0.25690  0.71587  Biso   1.000  Ir
  Ir33     1.0000 0.74311  0.57653  0.71587  Biso   1.000  Ir
  Ir34     1.0000 0.16657  0.42347  0.78413  Biso   1.000  Ir
  Ir35     1.0000 0.25689  0.83343  0.78413  Biso   1.000  Ir
  Ir36     1.0000 0.57653  0.74311  0.78413  Biso   1.000  Ir
