data_image0
_cell_length_a       16.676
_cell_length_b       3.96126
_cell_length_c       5.56666
_cell_angle_alpha    90
_cell_angle_beta     90
_cell_angle_gamma    90

_symmetry_space_group_name_H-M    "P 1"
_symmetry_int_tables_number       1

loop_
  _symmetry_equiv_pos_as_xyz
  'x, y, z'

loop_
  _atom_site_label
  _atom_site_occupancy
  _atom_site_fract_x
  _atom_site_fract_y
  _atom_site_fract_z
  _atom_site_thermal_displace_type
  _atom_site_B_iso_or_equiv
  _atom_site_type_symbol
  Ir1      1.0000 0.00000  0.00000  0.00000  Biso   1.000  Ir
  Ir2      1.0000 0.50000  0.00000  0.00000  Biso   1.000  Ir
  Ir3      1.0000 0.25000  0.50000  0.20766  Biso   1.000  Ir
  Ir4      1.0000 0.75000  0.50000  0.79234  Biso   1.000  Ir
  Ir5      1.0000 0.59287  0.50000  0.31350  Biso   1.000  Ir
  Ir6      1.0000 0.90713  0.50000  0.31350  Biso   1.000  Ir
  Ir7      1.0000 0.40713  0.50000  0.68650  Biso   1.000  Ir
  Ir8      1.0000 0.09287  0.50000  0.68650  Biso   1.000  Ir
  O1       1.0000 0.65604  0.00000  0.04966  Biso   1.000  O
  O2       1.0000 0.84396  0.00000  0.04966  Biso   1.000  O
  O3       1.0000 0.34396  0.00000  0.95034  Biso   1.000  O
  O4       1.0000 0.15604  0.00000  0.95034  Biso   1.000  O
  O5       1.0000 0.06916  0.50000  0.20562  Biso   1.000  O
  O6       1.0000 0.43084  0.50000  0.20562  Biso   1.000  O
  O7       1.0000 0.93084  0.50000  0.79438  Biso   1.000  O
  O8       1.0000 0.56916  0.50000  0.79438  Biso   1.000  O
  O9       1.0000 0.25000  0.50000  0.73296  Biso   1.000  O
  O10      1.0000 0.75000  0.50000  0.26704  Biso   1.000  O
  O11      1.0000 0.16800  0.00000  0.44375  Biso   1.000  O
  O12      1.0000 0.33200  0.00000  0.44375  Biso   1.000  O
  O13      1.0000 0.83200  0.00000  0.55625  Biso   1.000  O
  O14      1.0000 0.66800  0.00000  0.55625  Biso   1.000  O
  O15      1.0000 0.00000  0.00000  0.50000  Biso   1.000  O
  O16      1.0000 0.50000  0.00000  0.50000  Biso   1.000  O
