data_image0
_cell_length_a       3.13417
_cell_length_b       12.4354
_cell_length_c       3.33337
_cell_angle_alpha    90
_cell_angle_beta     112.914
_cell_angle_gamma    90

_symmetry_space_group_name_H-M    "P 1"
_symmetry_int_tables_number       1

loop_
  _symmetry_equiv_pos_as_xyz
  'x, y, z'

loop_
  _atom_site_label
  _atom_site_occupancy
  _atom_site_fract_x
  _atom_site_fract_y
  _atom_site_fract_z
  _atom_site_thermal_displace_type
  _atom_site_B_iso_or_equiv
  _atom_site_type_symbol
  O1       1.0000 0.16664  0.87575  0.83332  Biso   1.000  O
  O2       1.0000 0.83336  0.37575  0.16668  Biso   1.000  O
  O3       1.0000 0.83336  0.12425  0.16668  Biso   1.000  O
  O4       1.0000 0.16664  0.62425  0.83332  Biso   1.000  O
  Ir1      1.0000 0.50010  0.25000  0.50010  Biso   1.000  Ir
  Ir2      1.0000 0.49990  0.75000  0.49990  Biso   1.000  Ir
