data_image0
_cell_length_a       7.56821
_cell_length_b       17.1096
_cell_length_c       18.4426
_cell_angle_alpha    69.9427
_cell_angle_beta     86.8801
_cell_angle_gamma    85.8569

_symmetry_space_group_name_H-M    "P 1"
_symmetry_int_tables_number       1

loop_
  _symmetry_equiv_pos_as_xyz
  'x, y, z'

loop_
  _atom_site_label
  _atom_site_occupancy
  _atom_site_fract_x
  _atom_site_fract_y
  _atom_site_fract_z
  _atom_site_thermal_displace_type
  _atom_site_B_iso_or_equiv
  _atom_site_type_symbol
  O1       1.0000 0.44367  0.47281  0.11996  Biso   1.000  O
  O2       1.0000 0.55633  0.52720  0.88004  Biso   1.000  O
  O3       1.0000 0.38260  0.26758  0.16061  Biso   1.000  O
  O4       1.0000 0.61740  0.73242  0.83939  Biso   1.000  O
  O5       1.0000 0.92010  0.48737  0.66358  Biso   1.000  O
  O6       1.0000 0.07990  0.51263  0.33641  Biso   1.000  O
  O7       1.0000 0.34499  0.31800  0.32318  Biso   1.000  O
  O8       1.0000 0.65501  0.68200  0.67682  Biso   1.000  O
  O9       1.0000 0.72736  0.58241  0.19396  Biso   1.000  O
  O10      1.0000 0.27264  0.41759  0.80604  Biso   1.000  O
  O11      1.0000 0.60694  0.46329  0.35442  Biso   1.000  O
  O12      1.0000 0.39306  0.53671  0.64558  Biso   1.000  O
  O13      1.0000 0.65393  0.66942  0.33491  Biso   1.000  O
  O14      1.0000 0.34607  0.33058  0.66509  Biso   1.000  O
  O15      1.0000 0.26133  0.76773  0.42004  Biso   1.000  O
  O16      1.0000 0.73867  0.23227  0.57995  Biso   1.000  O
  O17      1.0000 0.23659  0.82628  0.71237  Biso   1.000  O
  O18      1.0000 0.76341  0.17372  0.28763  Biso   1.000  O
  O19      1.0000 0.67877  0.61875  0.01290  Biso   1.000  O
  O20      1.0000 0.32123  0.38125  0.98710  Biso   1.000  O
  O21      1.0000 0.98778  0.02573  0.62871  Biso   1.000  O
  O22      1.0000 0.01222  0.97427  0.37129  Biso   1.000  O
  O23      1.0000 0.03390  0.57044  0.89007  Biso   1.000  O
  O24      1.0000 0.96610  0.42956  0.10993  Biso   1.000  O
  O25      1.0000 0.68022  0.62930  0.51592  Biso   1.000  O
  O26      1.0000 0.31979  0.37070  0.48408  Biso   1.000  O
  O27      1.0000 0.01993  0.86362  0.54529  Biso   1.000  O
  O28      1.0000 0.98007  0.13638  0.45471  Biso   1.000  O
  O29      1.0000 0.26794  0.17730  0.58381  Biso   1.000  O
  O30      1.0000 0.73206  0.82270  0.41619  Biso   1.000  O
  O31      1.0000 0.71170  0.87583  0.68881  Biso   1.000  O
  O32      1.0000 0.28830  0.12417  0.31119  Biso   1.000  O
  Ir1      1.0000 0.01067  0.10178  0.35703  Biso   1.000  Ir
  Ir2      1.0000 0.98933  0.89822  0.64297  Biso   1.000  Ir
  Ir3      1.0000 0.58222  0.72264  0.42228  Biso   1.000  Ir
  Ir4      1.0000 0.41778  0.27736  0.57772  Biso   1.000  Ir
  Ir5      1.0000 0.76554  0.55639  0.30542  Biso   1.000  Ir
  Ir6      1.0000 0.23446  0.44361  0.69458  Biso   1.000  Ir
  Ir7      1.0000 0.71920  0.61237  0.90587  Biso   1.000  Ir
  Ir8      1.0000 0.28080  0.38764  0.09413  Biso   1.000  Ir
  Ir9      1.0000 0.29388  0.47386  0.89078  Biso   1.000  Ir
  Ir10     1.0000 0.70613  0.52614  0.10922  Biso   1.000  Ir
  Ir11     1.0000 0.55536  0.77909  0.72896  Biso   1.000  Ir
  Ir12     1.0000 0.44464  0.22091  0.27104  Biso   1.000  Ir
  Ir13     1.0000 0.99282  0.14277  0.56162  Biso   1.000  Ir
  Ir14     1.0000 0.00718  0.85723  0.43838  Biso   1.000  Ir
  Ir15     1.0000 0.66247  0.58400  0.62602  Biso   1.000  Ir
  Ir16     1.0000 0.33753  0.41600  0.37398  Biso   1.000  Ir
