data_image0
_cell_length_a       14.7301
_cell_length_b       14.5511
_cell_length_c       5.79591
_cell_angle_alpha    90
_cell_angle_beta     101.297
_cell_angle_gamma    90

_symmetry_space_group_name_H-M    "P 1"
_symmetry_int_tables_number       1

loop_
  _symmetry_equiv_pos_as_xyz
  'x, y, z'

loop_
  _atom_site_label
  _atom_site_occupancy
  _atom_site_fract_x
  _atom_site_fract_y
  _atom_site_fract_z
  _atom_site_thermal_displace_type
  _atom_site_B_iso_or_equiv
  _atom_site_type_symbol
  O1       1.0000 0.02033  0.97748  0.74976  Biso   1.000  O
  O2       1.0000 0.02033  0.02252  0.24976  Biso   1.000  O
  O3       1.0000 0.69072  0.38070  0.06761  Biso   1.000  O
  O4       1.0000 0.69072  0.61930  0.56761  Biso   1.000  O
  O5       1.0000 0.91033  0.37615  0.67458  Biso   1.000  O
  O6       1.0000 0.91033  0.62385  0.17458  Biso   1.000  O
  O7       1.0000 0.02744  0.37399  0.53819  Biso   1.000  O
  O8       1.0000 0.02744  0.62601  0.03819  Biso   1.000  O
  O9       1.0000 0.10350  0.37284  0.27362  Biso   1.000  O
  O10      1.0000 0.10350  0.62716  0.77362  Biso   1.000  O
  O11      1.0000 0.99977  0.87244  0.49825  Biso   1.000  O
  O12      1.0000 0.99977  0.12756  0.99825  Biso   1.000  O
  O13      1.0000 0.29310  0.37240  0.86677  Biso   1.000  O
  O14      1.0000 0.29310  0.62760  0.36677  Biso   1.000  O
  O15      1.0000 0.20289  0.75056  0.71002  Biso   1.000  O
  O16      1.0000 0.20289  0.24944  0.21002  Biso   1.000  O
  O17      1.0000 0.52033  0.47748  0.74976  Biso   1.000  O
  O18      1.0000 0.52033  0.52252  0.24976  Biso   1.000  O
  O19      1.0000 0.19073  0.88070  0.06761  Biso   1.000  O
  O20      1.0000 0.19073  0.11930  0.56761  Biso   1.000  O
  O21      1.0000 0.41033  0.87615  0.67458  Biso   1.000  O
  O22      1.0000 0.41033  0.12385  0.17458  Biso   1.000  O
  O23      1.0000 0.52744  0.87399  0.53819  Biso   1.000  O
  O24      1.0000 0.52744  0.12601  0.03819  Biso   1.000  O
  O25      1.0000 0.60350  0.87284  0.27362  Biso   1.000  O
  O26      1.0000 0.60350  0.12716  0.77362  Biso   1.000  O
  O27      1.0000 0.49977  0.37244  0.49825  Biso   1.000  O
  O28      1.0000 0.49977  0.62756  0.99825  Biso   1.000  O
  O29      1.0000 0.79310  0.87240  0.86677  Biso   1.000  O
  O30      1.0000 0.79310  0.12760  0.36677  Biso   1.000  O
  O31      1.0000 0.70289  0.25056  0.71002  Biso   1.000  O
  O32      1.0000 0.70289  0.74944  0.21002  Biso   1.000  O
  Ir1      1.0000 0.20769  0.45880  0.07549  Biso   1.000  Ir
  Ir2      1.0000 0.20769  0.54120  0.57549  Biso   1.000  Ir
  Ir3      1.0000 0.81292  0.45850  0.88171  Biso   1.000  Ir
  Ir4      1.0000 0.81292  0.54150  0.38171  Biso   1.000  Ir
  Ir5      1.0000 0.10023  0.80127  0.28331  Biso   1.000  Ir
  Ir6      1.0000 0.10023  0.19873  0.78331  Biso   1.000  Ir
  Ir7      1.0000 0.89364  0.78018  0.67982  Biso   1.000  Ir
  Ir8      1.0000 0.89364  0.21982  0.17982  Biso   1.000  Ir
  Ir9      1.0000 0.70769  0.95880  0.07549  Biso   1.000  Ir
  Ir10     1.0000 0.70769  0.04120  0.57549  Biso   1.000  Ir
  Ir11     1.0000 0.31292  0.95850  0.88171  Biso   1.000  Ir
  Ir12     1.0000 0.31292  0.04150  0.38171  Biso   1.000  Ir
  Ir13     1.0000 0.60023  0.30127  0.28331  Biso   1.000  Ir
  Ir14     1.0000 0.60023  0.69873  0.78331  Biso   1.000  Ir
  Ir15     1.0000 0.39364  0.28018  0.67982  Biso   1.000  Ir
  Ir16     1.0000 0.39364  0.71982  0.17982  Biso   1.000  Ir
