data_image0
_cell_length_a       24.4891
_cell_length_b       24.6827
_cell_length_c       16.431
_cell_angle_alpha    90
_cell_angle_beta     90
_cell_angle_gamma    90

_symmetry_space_group_name_H-M    "P 1"
_symmetry_int_tables_number       1

loop_
  _symmetry_equiv_pos_as_xyz
  'x, y, z'

loop_
  _atom_site_label
  _atom_site_occupancy
  _atom_site_fract_x
  _atom_site_fract_y
  _atom_site_fract_z
  _atom_site_thermal_displace_type
  _atom_site_B_iso_or_equiv
  _atom_site_type_symbol
  O1       1.0000 0.11757  0.10896  0.09478  Biso   1.000  O
  O2       1.0000 0.88243  0.89103  0.09478  Biso   1.000  O
  O3       1.0000 0.11757  0.89103  0.09478  Biso   1.000  O
  O4       1.0000 0.88243  0.10896  0.09478  Biso   1.000  O
  O5       1.0000 0.69034  0.00000  0.96324  Biso   1.000  O
  O6       1.0000 0.30966  0.00000  0.96324  Biso   1.000  O
  O7       1.0000 0.24628  0.91138  0.07013  Biso   1.000  O
  O8       1.0000 0.75372  0.08862  0.07013  Biso   1.000  O
  O9       1.0000 0.24628  0.08862  0.07013  Biso   1.000  O
  O10      1.0000 0.75372  0.91138  0.07013  Biso   1.000  O
  O11      1.0000 0.60722  0.68639  0.24293  Biso   1.000  O
  O12      1.0000 0.39278  0.31361  0.24293  Biso   1.000  O
  O13      1.0000 0.60722  0.31361  0.24293  Biso   1.000  O
  O14      1.0000 0.39278  0.68639  0.24293  Biso   1.000  O
  O15      1.0000 0.50000  0.11308  0.11739  Biso   1.000  O
  O16      1.0000 0.50000  0.88692  0.11739  Biso   1.000  O
  O17      1.0000 0.41321  0.87636  0.44431  Biso   1.000  O
  O18      1.0000 0.58678  0.12364  0.44431  Biso   1.000  O
  O19      1.0000 0.41321  0.12364  0.44431  Biso   1.000  O
  O20      1.0000 0.58678  0.87636  0.44431  Biso   1.000  O
  O21      1.0000 0.81701  0.11970  0.43634  Biso   1.000  O
  O22      1.0000 0.18299  0.88030  0.43634  Biso   1.000  O
  O23      1.0000 0.81701  0.88030  0.43634  Biso   1.000  O
  O24      1.0000 0.18299  0.11970  0.43634  Biso   1.000  O
  O25      1.0000 0.58684  0.08412  0.25676  Biso   1.000  O
  O26      1.0000 0.41316  0.91588  0.25676  Biso   1.000  O
  O27      1.0000 0.58684  0.91588  0.25676  Biso   1.000  O
  O28      1.0000 0.41316  0.08412  0.25676  Biso   1.000  O
  O29      1.0000 0.20443  0.80100  0.15261  Biso   1.000  O
  O30      1.0000 0.79557  0.19899  0.15261  Biso   1.000  O
  O31      1.0000 0.20443  0.19899  0.15261  Biso   1.000  O
  O32      1.0000 0.79557  0.80100  0.15261  Biso   1.000  O
  O33      1.0000 0.61334  0.30313  0.04963  Biso   1.000  O
  O34      1.0000 0.38666  0.69687  0.04963  Biso   1.000  O
  O35      1.0000 0.61334  0.69687  0.04963  Biso   1.000  O
  O36      1.0000 0.38666  0.30313  0.04963  Biso   1.000  O
  O37      1.0000 0.37490  0.79484  0.58781  Biso   1.000  O
  O38      1.0000 0.62510  0.20516  0.58781  Biso   1.000  O
  O39      1.0000 0.37490  0.20516  0.58781  Biso   1.000  O
  O40      1.0000 0.62510  0.79484  0.58781  Biso   1.000  O
  O41      1.0000 0.50000  0.80130  0.53588  Biso   1.000  O
  O42      1.0000 0.50000  0.19869  0.53588  Biso   1.000  O
  O43      1.0000 0.68877  0.12262  0.90690  Biso   1.000  O
  O44      1.0000 0.31123  0.87738  0.90690  Biso   1.000  O
  O45      1.0000 0.68877  0.87738  0.90690  Biso   1.000  O
  O46      1.0000 0.31123  0.12262  0.90690  Biso   1.000  O
  O47      1.0000 0.59740  0.19686  0.16135  Biso   1.000  O
  O48      1.0000 0.40260  0.80314  0.16135  Biso   1.000  O
  O49      1.0000 0.59740  0.80314  0.16135  Biso   1.000  O
  O50      1.0000 0.40260  0.19686  0.16135  Biso   1.000  O
  O51      1.0000 0.75475  0.19814  0.56072  Biso   1.000  O
  O52      1.0000 0.24525  0.80186  0.56072  Biso   1.000  O
  O53      1.0000 0.75475  0.80186  0.56072  Biso   1.000  O
  O54      1.0000 0.24525  0.19814  0.56072  Biso   1.000  O
  O55      1.0000 0.69927  0.90323  0.35530  Biso   1.000  O
  O56      1.0000 0.30073  0.09677  0.35530  Biso   1.000  O
  O57      1.0000 0.69927  0.09677  0.35530  Biso   1.000  O
  O58      1.0000 0.30073  0.90323  0.35530  Biso   1.000  O
  O59      1.0000 0.61417  0.00000  0.39932  Biso   1.000  O
  O60      1.0000 0.38583  0.00000  0.39932  Biso   1.000  O
  O61      1.0000 0.68314  0.74743  0.90323  Biso   1.000  O
  O62      1.0000 0.31686  0.25257  0.90323  Biso   1.000  O
  O63      1.0000 0.68314  0.25257  0.90323  Biso   1.000  O
  O64      1.0000 0.31686  0.74743  0.90323  Biso   1.000  O
  O65      1.0000 0.79772  0.19326  0.87855  Biso   1.000  O
  O66      1.0000 0.20228  0.80674  0.87855  Biso   1.000  O
  O67      1.0000 0.79772  0.80674  0.87855  Biso   1.000  O
  O68      1.0000 0.20228  0.19326  0.87855  Biso   1.000  O
  O69      1.0000 0.50000  0.58415  0.52496  Biso   1.000  O
  O70      1.0000 0.50000  0.41584  0.52496  Biso   1.000  O
  O71      1.0000 0.59769  0.61584  0.40197  Biso   1.000  O
  O72      1.0000 0.40231  0.38416  0.40197  Biso   1.000  O
  O73      1.0000 0.59769  0.38416  0.40197  Biso   1.000  O
  O74      1.0000 0.40231  0.61584  0.40197  Biso   1.000  O
  O75      1.0000 0.78504  0.00000  0.38974  Biso   1.000  O
  O76      1.0000 0.21496  0.00000  0.38974  Biso   1.000  O
  O77      1.0000 0.50000  0.28407  0.13848  Biso   1.000  O
  O78      1.0000 0.50000  0.71593  0.13848  Biso   1.000  O
  O79      1.0000 0.58614  0.25310  0.41369  Biso   1.000  O
  O80      1.0000 0.41386  0.74690  0.41369  Biso   1.000  O
  O81      1.0000 0.58614  0.74690  0.41369  Biso   1.000  O
  O82      1.0000 0.41386  0.25310  0.41369  Biso   1.000  O
  O83      1.0000 0.70433  0.81515  0.73914  Biso   1.000  O
  O84      1.0000 0.29567  0.18485  0.73914  Biso   1.000  O
  O85      1.0000 0.70433  0.18485  0.73914  Biso   1.000  O
  O86      1.0000 0.29567  0.81515  0.73914  Biso   1.000  O
  O87      1.0000 0.19230  0.08600  0.24771  Biso   1.000  O
  O88      1.0000 0.80770  0.91400  0.24771  Biso   1.000  O
  O89      1.0000 0.19230  0.91400  0.24771  Biso   1.000  O
  O90      1.0000 0.80770  0.08600  0.24771  Biso   1.000  O
  O91      1.0000 0.37773  0.08580  0.06756  Biso   1.000  O
  O92      1.0000 0.62227  0.91420  0.06756  Biso   1.000  O
  O93      1.0000 0.37773  0.91420  0.06756  Biso   1.000  O
  O94      1.0000 0.62227  0.08580  0.06756  Biso   1.000  O
  O95      1.0000 0.90209  0.00000  0.98848  Biso   1.000  O
  O96      1.0000 0.09791  0.00000  0.98848  Biso   1.000  O
  O97      1.0000 0.61757  0.60896  0.59478  Biso   1.000  O
  O98      1.0000 0.38243  0.39104  0.59478  Biso   1.000  O
  O99      1.0000 0.61757  0.39104  0.59478  Biso   1.000  O
  O100     1.0000 0.38243  0.60896  0.59478  Biso   1.000  O
  O101     1.0000 0.19034  0.50000  0.46324  Biso   1.000  O
  O102     1.0000 0.80966  0.50000  0.46324  Biso   1.000  O
  O103     1.0000 0.74628  0.41138  0.57013  Biso   1.000  O
  O104     1.0000 0.25372  0.58862  0.57013  Biso   1.000  O
  O105     1.0000 0.74628  0.58862  0.57013  Biso   1.000  O
  O106     1.0000 0.25372  0.41138  0.57013  Biso   1.000  O
  O107     1.0000 0.10722  0.18639  0.74293  Biso   1.000  O
  O108     1.0000 0.89278  0.81361  0.74293  Biso   1.000  O
  O109     1.0000 0.10722  0.81361  0.74293  Biso   1.000  O
  O110     1.0000 0.89278  0.18639  0.74293  Biso   1.000  O
  O111     1.0000 0.00000  0.61308  0.61740  Biso   1.000  O
  O112     1.0000 0.00000  0.38692  0.61740  Biso   1.000  O
  O113     1.0000 0.91321  0.37636  0.94431  Biso   1.000  O
  O114     1.0000 0.08679  0.62364  0.94431  Biso   1.000  O
  O115     1.0000 0.91321  0.62364  0.94431  Biso   1.000  O
  O116     1.0000 0.08679  0.37636  0.94431  Biso   1.000  O
  O117     1.0000 0.31701  0.61970  0.93634  Biso   1.000  O
  O118     1.0000 0.68298  0.38030  0.93634  Biso   1.000  O
  O119     1.0000 0.31701  0.38030  0.93634  Biso   1.000  O
  O120     1.0000 0.68298  0.61970  0.93634  Biso   1.000  O
  O121     1.0000 0.08684  0.58412  0.75676  Biso   1.000  O
  O122     1.0000 0.91316  0.41588  0.75676  Biso   1.000  O
  O123     1.0000 0.08684  0.41588  0.75676  Biso   1.000  O
  O124     1.0000 0.91316  0.58412  0.75676  Biso   1.000  O
  O125     1.0000 0.70443  0.30100  0.65261  Biso   1.000  O
  O126     1.0000 0.29557  0.69900  0.65261  Biso   1.000  O
  O127     1.0000 0.70443  0.69900  0.65261  Biso   1.000  O
  O128     1.0000 0.29557  0.30100  0.65261  Biso   1.000  O
  O129     1.0000 0.11334  0.80313  0.54963  Biso   1.000  O
  O130     1.0000 0.88666  0.19687  0.54963  Biso   1.000  O
  O131     1.0000 0.11334  0.19687  0.54963  Biso   1.000  O
  O132     1.0000 0.88666  0.80313  0.54963  Biso   1.000  O
  O133     1.0000 0.87490  0.29484  0.08781  Biso   1.000  O
  O134     1.0000 0.12510  0.70516  0.08781  Biso   1.000  O
  O135     1.0000 0.87490  0.70516  0.08781  Biso   1.000  O
  O136     1.0000 0.12510  0.29484  0.08781  Biso   1.000  O
  O137     1.0000 0.00000  0.30130  0.03588  Biso   1.000  O
  O138     1.0000 0.00000  0.69869  0.03588  Biso   1.000  O
  O139     1.0000 0.18877  0.62262  0.40690  Biso   1.000  O
  O140     1.0000 0.81123  0.37738  0.40690  Biso   1.000  O
  O141     1.0000 0.18877  0.37738  0.40690  Biso   1.000  O
  O142     1.0000 0.81123  0.62262  0.40690  Biso   1.000  O
  O143     1.0000 0.09740  0.69686  0.66135  Biso   1.000  O
  O144     1.0000 0.90260  0.30314  0.66135  Biso   1.000  O
  O145     1.0000 0.09740  0.30314  0.66135  Biso   1.000  O
  O146     1.0000 0.90260  0.69686  0.66135  Biso   1.000  O
  O147     1.0000 0.25475  0.69814  0.06072  Biso   1.000  O
  O148     1.0000 0.74525  0.30186  0.06072  Biso   1.000  O
  O149     1.0000 0.25475  0.30186  0.06072  Biso   1.000  O
  O150     1.0000 0.74525  0.69814  0.06072  Biso   1.000  O
  O151     1.0000 0.19926  0.40323  0.85530  Biso   1.000  O
  O152     1.0000 0.80073  0.59677  0.85530  Biso   1.000  O
  O153     1.0000 0.19926  0.59677  0.85530  Biso   1.000  O
  O154     1.0000 0.80073  0.40323  0.85530  Biso   1.000  O
  O155     1.0000 0.11417  0.50000  0.89932  Biso   1.000  O
  O156     1.0000 0.88583  0.50000  0.89932  Biso   1.000  O
  O157     1.0000 0.18314  0.24743  0.40323  Biso   1.000  O
  O158     1.0000 0.81686  0.75257  0.40323  Biso   1.000  O
  O159     1.0000 0.18314  0.75257  0.40323  Biso   1.000  O
  O160     1.0000 0.81686  0.24743  0.40323  Biso   1.000  O
  O161     1.0000 0.29772  0.69326  0.37855  Biso   1.000  O
  O162     1.0000 0.70228  0.30674  0.37855  Biso   1.000  O
  O163     1.0000 0.29772  0.30674  0.37855  Biso   1.000  O
  O164     1.0000 0.70228  0.69326  0.37855  Biso   1.000  O
  O165     1.0000 0.00000  0.08415  0.02496  Biso   1.000  O
  O166     1.0000 0.00000  0.91584  0.02496  Biso   1.000  O
  O167     1.0000 0.09769  0.11584  0.90197  Biso   1.000  O
  O168     1.0000 0.90231  0.88416  0.90197  Biso   1.000  O
  O169     1.0000 0.09769  0.88416  0.90197  Biso   1.000  O
  O170     1.0000 0.90231  0.11584  0.90197  Biso   1.000  O
  O171     1.0000 0.28504  0.50000  0.88974  Biso   1.000  O
  O172     1.0000 0.71496  0.50000  0.88974  Biso   1.000  O
  O173     1.0000 0.00000  0.78407  0.63848  Biso   1.000  O
  O174     1.0000 0.00000  0.21593  0.63848  Biso   1.000  O
  O175     1.0000 0.08614  0.75310  0.91369  Biso   1.000  O
  O176     1.0000 0.91386  0.24690  0.91369  Biso   1.000  O
  O177     1.0000 0.08614  0.24690  0.91369  Biso   1.000  O
  O178     1.0000 0.91386  0.75310  0.91369  Biso   1.000  O
  O179     1.0000 0.20433  0.31515  0.23914  Biso   1.000  O
  O180     1.0000 0.79567  0.68485  0.23914  Biso   1.000  O
  O181     1.0000 0.20433  0.68485  0.23914  Biso   1.000  O
  O182     1.0000 0.79567  0.31515  0.23914  Biso   1.000  O
  O183     1.0000 0.69230  0.58600  0.74771  Biso   1.000  O
  O184     1.0000 0.30770  0.41400  0.74771  Biso   1.000  O
  O185     1.0000 0.69230  0.41400  0.74771  Biso   1.000  O
  O186     1.0000 0.30770  0.58600  0.74771  Biso   1.000  O
  O187     1.0000 0.87773  0.58580  0.56756  Biso   1.000  O
  O188     1.0000 0.12227  0.41420  0.56756  Biso   1.000  O
  O189     1.0000 0.87773  0.41420  0.56756  Biso   1.000  O
  O190     1.0000 0.12227  0.58580  0.56756  Biso   1.000  O
  O191     1.0000 0.40210  0.50000  0.48848  Biso   1.000  O
  O192     1.0000 0.59791  0.50000  0.48848  Biso   1.000  O
  Ir1      1.0000 0.80941  0.12103  0.14092  Biso   1.000  Ir
  Ir2      1.0000 0.19059  0.87897  0.14092  Biso   1.000  Ir
  Ir3      1.0000 0.80941  0.87897  0.14092  Biso   1.000  Ir
  Ir4      1.0000 0.19059  0.12103  0.14092  Biso   1.000  Ir
  Ir5      1.0000 0.37830  0.92393  0.36396  Biso   1.000  Ir
  Ir6      1.0000 0.62170  0.07607  0.36396  Biso   1.000  Ir
  Ir7      1.0000 0.37830  0.07607  0.36396  Biso   1.000  Ir
  Ir8      1.0000 0.62170  0.92393  0.36396  Biso   1.000  Ir
  Ir9      1.0000 0.22299  0.07585  0.35685  Biso   1.000  Ir
  Ir10     1.0000 0.77701  0.92415  0.35685  Biso   1.000  Ir
  Ir11     1.0000 0.22299  0.92415  0.35685  Biso   1.000  Ir
  Ir12     1.0000 0.77701  0.07585  0.35685  Biso   1.000  Ir
  Ir13     1.0000 0.30314  0.77738  0.63447  Biso   1.000  Ir
  Ir14     1.0000 0.69686  0.22262  0.63447  Biso   1.000  Ir
  Ir15     1.0000 0.30314  0.22262  0.63447  Biso   1.000  Ir
  Ir16     1.0000 0.69686  0.77738  0.63447  Biso   1.000  Ir
  Ir17     1.0000 0.42324  0.12000  0.15102  Biso   1.000  Ir
  Ir18     1.0000 0.57676  0.88000  0.15102  Biso   1.000  Ir
  Ir19     1.0000 0.42324  0.88000  0.15102  Biso   1.000  Ir
  Ir20     1.0000 0.57676  0.12000  0.15102  Biso   1.000  Ir
  Ir21     1.0000 0.68882  0.92496  0.00269  Biso   1.000  Ir
  Ir22     1.0000 0.31118  0.07504  0.00269  Biso   1.000  Ir
  Ir23     1.0000 0.68882  0.07504  0.00269  Biso   1.000  Ir
  Ir24     1.0000 0.31118  0.92496  0.00269  Biso   1.000  Ir
  Ir25     1.0000 0.62335  0.31405  0.35973  Biso   1.000  Ir
  Ir26     1.0000 0.37665  0.68595  0.35973  Biso   1.000  Ir
  Ir27     1.0000 0.62335  0.68595  0.35973  Biso   1.000  Ir
  Ir28     1.0000 0.37665  0.31405  0.35973  Biso   1.000  Ir
  Ir29     1.0000 0.71881  0.81166  0.85644  Biso   1.000  Ir
  Ir30     1.0000 0.28119  0.18834  0.85644  Biso   1.000  Ir
  Ir31     1.0000 0.71881  0.18834  0.85644  Biso   1.000  Ir
  Ir32     1.0000 0.28119  0.81166  0.85644  Biso   1.000  Ir
  Ir33     1.0000 0.42104  0.27411  0.14816  Biso   1.000  Ir
  Ir34     1.0000 0.57896  0.72589  0.14816  Biso   1.000  Ir
  Ir35     1.0000 0.42104  0.72589  0.14816  Biso   1.000  Ir
  Ir36     1.0000 0.57896  0.27411  0.14816  Biso   1.000  Ir
  Ir37     1.0000 0.42450  0.80485  0.49505  Biso   1.000  Ir
  Ir38     1.0000 0.57550  0.19515  0.49505  Biso   1.000  Ir
  Ir39     1.0000 0.42450  0.19515  0.49505  Biso   1.000  Ir
  Ir40     1.0000 0.57550  0.80485  0.49505  Biso   1.000  Ir
  Ir41     1.0000 0.92180  0.07677  0.00231  Biso   1.000  Ir
  Ir42     1.0000 0.07820  0.92323  0.00231  Biso   1.000  Ir
  Ir43     1.0000 0.92180  0.92323  0.00231  Biso   1.000  Ir
  Ir44     1.0000 0.07820  0.07677  0.00231  Biso   1.000  Ir
  Ir45     1.0000 0.31816  0.69120  0.98825  Biso   1.000  Ir
  Ir46     1.0000 0.68184  0.30879  0.98825  Biso   1.000  Ir
  Ir47     1.0000 0.31816  0.30879  0.98825  Biso   1.000  Ir
  Ir48     1.0000 0.68184  0.69120  0.98825  Biso   1.000  Ir
  Ir49     1.0000 0.30940  0.62103  0.64092  Biso   1.000  Ir
  Ir50     1.0000 0.69059  0.37897  0.64092  Biso   1.000  Ir
  Ir51     1.0000 0.30940  0.37897  0.64092  Biso   1.000  Ir
  Ir52     1.0000 0.69059  0.62103  0.64092  Biso   1.000  Ir
  Ir53     1.0000 0.87830  0.42393  0.86396  Biso   1.000  Ir
  Ir54     1.0000 0.12170  0.57607  0.86396  Biso   1.000  Ir
  Ir55     1.0000 0.87830  0.57607  0.86396  Biso   1.000  Ir
  Ir56     1.0000 0.12170  0.42393  0.86396  Biso   1.000  Ir
  Ir57     1.0000 0.72299  0.57585  0.85685  Biso   1.000  Ir
  Ir58     1.0000 0.27701  0.42415  0.85685  Biso   1.000  Ir
  Ir59     1.0000 0.72299  0.42415  0.85685  Biso   1.000  Ir
  Ir60     1.0000 0.27701  0.57585  0.85685  Biso   1.000  Ir
  Ir61     1.0000 0.80314  0.27738  0.13447  Biso   1.000  Ir
  Ir62     1.0000 0.19687  0.72262  0.13447  Biso   1.000  Ir
  Ir63     1.0000 0.80314  0.72262  0.13447  Biso   1.000  Ir
  Ir64     1.0000 0.19687  0.27738  0.13447  Biso   1.000  Ir
  Ir65     1.0000 0.92324  0.62000  0.65102  Biso   1.000  Ir
  Ir66     1.0000 0.07676  0.38000  0.65102  Biso   1.000  Ir
  Ir67     1.0000 0.92324  0.38000  0.65102  Biso   1.000  Ir
  Ir68     1.0000 0.07676  0.62000  0.65102  Biso   1.000  Ir
  Ir69     1.0000 0.18882  0.42496  0.50269  Biso   1.000  Ir
  Ir70     1.0000 0.81118  0.57504  0.50269  Biso   1.000  Ir
  Ir71     1.0000 0.18882  0.57504  0.50269  Biso   1.000  Ir
  Ir72     1.0000 0.81118  0.42496  0.50269  Biso   1.000  Ir
  Ir73     1.0000 0.12335  0.81405  0.85973  Biso   1.000  Ir
  Ir74     1.0000 0.87665  0.18595  0.85973  Biso   1.000  Ir
  Ir75     1.0000 0.12335  0.18595  0.85973  Biso   1.000  Ir
  Ir76     1.0000 0.87665  0.81405  0.85973  Biso   1.000  Ir
  Ir77     1.0000 0.21881  0.31166  0.35644  Biso   1.000  Ir
  Ir78     1.0000 0.78119  0.68834  0.35644  Biso   1.000  Ir
  Ir79     1.0000 0.21881  0.68834  0.35644  Biso   1.000  Ir
  Ir80     1.0000 0.78119  0.31166  0.35644  Biso   1.000  Ir
  Ir81     1.0000 0.92104  0.77411  0.64816  Biso   1.000  Ir
  Ir82     1.0000 0.07896  0.22589  0.64816  Biso   1.000  Ir
  Ir83     1.0000 0.92104  0.22589  0.64816  Biso   1.000  Ir
  Ir84     1.0000 0.07896  0.77411  0.64816  Biso   1.000  Ir
  Ir85     1.0000 0.92450  0.30485  0.99505  Biso   1.000  Ir
  Ir86     1.0000 0.07550  0.69515  0.99505  Biso   1.000  Ir
  Ir87     1.0000 0.92450  0.69515  0.99505  Biso   1.000  Ir
  Ir88     1.0000 0.07550  0.30485  0.99505  Biso   1.000  Ir
  Ir89     1.0000 0.42180  0.57677  0.50231  Biso   1.000  Ir
  Ir90     1.0000 0.57820  0.42323  0.50231  Biso   1.000  Ir
  Ir91     1.0000 0.42180  0.42323  0.50231  Biso   1.000  Ir
  Ir92     1.0000 0.57820  0.57677  0.50231  Biso   1.000  Ir
  Ir93     1.0000 0.81816  0.19120  0.48825  Biso   1.000  Ir
  Ir94     1.0000 0.18184  0.80880  0.48825  Biso   1.000  Ir
  Ir95     1.0000 0.81816  0.80880  0.48825  Biso   1.000  Ir
  Ir96     1.0000 0.18184  0.19120  0.48825  Biso   1.000  Ir
