data_image0
_cell_length_a       25.1467
_cell_length_b       11.9576
_cell_length_c       24.1333
_cell_angle_alpha    90
_cell_angle_beta     90
_cell_angle_gamma    90

_symmetry_space_group_name_H-M    "P 1"
_symmetry_int_tables_number       1

loop_
  _symmetry_equiv_pos_as_xyz
  'x, y, z'

loop_
  _atom_site_label
  _atom_site_occupancy
  _atom_site_fract_x
  _atom_site_fract_y
  _atom_site_fract_z
  _atom_site_thermal_displace_type
  _atom_site_B_iso_or_equiv
  _atom_site_type_symbol
  O1       1.0000 0.20822  0.39024  0.84059  Biso   1.000  O
  O2       1.0000 0.29178  0.10976  0.34059  Biso   1.000  O
  O3       1.0000 0.29178  0.89024  0.65941  Biso   1.000  O
  O4       1.0000 0.20822  0.60976  0.15941  Biso   1.000  O
  O5       1.0000 0.29178  0.10976  0.15941  Biso   1.000  O
  O6       1.0000 0.20822  0.39024  0.65941  Biso   1.000  O
  O7       1.0000 0.20822  0.60976  0.34059  Biso   1.000  O
  O8       1.0000 0.29178  0.89024  0.84059  Biso   1.000  O
  O9       1.0000 0.00000  0.40874  0.07317  Biso   1.000  O
  O10      1.0000 0.00000  0.59126  0.57317  Biso   1.000  O
  O11      1.0000 0.00000  0.40874  0.42683  Biso   1.000  O
  O12      1.0000 0.00000  0.59126  0.92683  Biso   1.000  O
  O13      1.0000 0.28519  0.65822  0.44321  Biso   1.000  O
  O14      1.0000 0.21481  0.84178  0.94321  Biso   1.000  O
  O15      1.0000 0.21481  0.15822  0.05679  Biso   1.000  O
  O16      1.0000 0.28519  0.34178  0.55679  Biso   1.000  O
  O17      1.0000 0.21481  0.84178  0.55679  Biso   1.000  O
  O18      1.0000 0.28519  0.65822  0.05679  Biso   1.000  O
  O19      1.0000 0.28519  0.34178  0.94321  Biso   1.000  O
  O20      1.0000 0.21481  0.15822  0.44321  Biso   1.000  O
  O21      1.0000 0.40590  0.74337  0.03704  Biso   1.000  O
  O22      1.0000 0.09410  0.75663  0.53704  Biso   1.000  O
  O23      1.0000 0.09410  0.24337  0.46296  Biso   1.000  O
  O24      1.0000 0.40590  0.25663  0.96296  Biso   1.000  O
  O25      1.0000 0.09410  0.75663  0.96296  Biso   1.000  O
  O26      1.0000 0.40590  0.74337  0.46296  Biso   1.000  O
  O27      1.0000 0.40590  0.25663  0.53704  Biso   1.000  O
  O28      1.0000 0.09410  0.24337  0.03704  Biso   1.000  O
  O29      1.0000 0.17369  0.21167  0.56691  Biso   1.000  O
  O30      1.0000 0.32631  0.28833  0.06691  Biso   1.000  O
  O31      1.0000 0.32631  0.71167  0.93309  Biso   1.000  O
  O32      1.0000 0.17369  0.78833  0.43309  Biso   1.000  O
  O33      1.0000 0.32631  0.28833  0.43309  Biso   1.000  O
  O34      1.0000 0.17369  0.21167  0.93309  Biso   1.000  O
  O35      1.0000 0.17369  0.78833  0.06691  Biso   1.000  O
  O36      1.0000 0.32631  0.71167  0.56691  Biso   1.000  O
  O37      1.0000 0.23228  0.34515  0.34760  Biso   1.000  O
  O38      1.0000 0.26772  0.15485  0.84761  Biso   1.000  O
  O39      1.0000 0.26772  0.84515  0.15239  Biso   1.000  O
  O40      1.0000 0.23228  0.65485  0.65239  Biso   1.000  O
  O41      1.0000 0.26772  0.15485  0.65239  Biso   1.000  O
  O42      1.0000 0.23228  0.34515  0.15239  Biso   1.000  O
  O43      1.0000 0.23228  0.65485  0.84761  Biso   1.000  O
  O44      1.0000 0.26772  0.84515  0.34760  Biso   1.000  O
  O45      1.0000 0.15970  0.44415  0.25000  Biso   1.000  O
  O46      1.0000 0.34030  0.05585  0.75000  Biso   1.000  O
  O47      1.0000 0.34030  0.94415  0.25000  Biso   1.000  O
  O48      1.0000 0.15970  0.55585  0.75000  Biso   1.000  O
  O49      1.0000 0.38610  0.93738  0.12791  Biso   1.000  O
  O50      1.0000 0.11390  0.56262  0.62791  Biso   1.000  O
  O51      1.0000 0.11390  0.43738  0.37209  Biso   1.000  O
  O52      1.0000 0.38610  0.06262  0.87209  Biso   1.000  O
  O53      1.0000 0.11390  0.56262  0.87209  Biso   1.000  O
  O54      1.0000 0.38610  0.93738  0.37209  Biso   1.000  O
  O55      1.0000 0.38610  0.06262  0.62791  Biso   1.000  O
  O56      1.0000 0.11390  0.43738  0.12791  Biso   1.000  O
  O57      1.0000 0.37253  0.50000  0.00000  Biso   1.000  O
  O58      1.0000 0.12747  0.00000  0.50000  Biso   1.000  O
  O59      1.0000 0.12747  0.00000  0.00000  Biso   1.000  O
  O60      1.0000 0.37253  0.50000  0.50000  Biso   1.000  O
  O61      1.0000 0.40131  0.00000  0.00000  Biso   1.000  O
  O62      1.0000 0.09869  0.50000  0.50000  Biso   1.000  O
  O63      1.0000 0.09869  0.50000  0.00000  Biso   1.000  O
  O64      1.0000 0.40131  0.00000  0.50000  Biso   1.000  O
  O65      1.0000 0.70822  0.89024  0.84059  Biso   1.000  O
  O66      1.0000 0.79178  0.60976  0.34059  Biso   1.000  O
  O67      1.0000 0.79178  0.39024  0.65941  Biso   1.000  O
  O68      1.0000 0.70822  0.10976  0.15941  Biso   1.000  O
  O69      1.0000 0.79178  0.60976  0.15941  Biso   1.000  O
  O70      1.0000 0.70822  0.89024  0.65941  Biso   1.000  O
  O71      1.0000 0.70822  0.10976  0.34059  Biso   1.000  O
  O72      1.0000 0.79178  0.39024  0.84059  Biso   1.000  O
  O73      1.0000 0.50000  0.90874  0.07317  Biso   1.000  O
  O74      1.0000 0.50000  0.09126  0.57317  Biso   1.000  O
  O75      1.0000 0.50000  0.90874  0.42683  Biso   1.000  O
  O76      1.0000 0.50000  0.09126  0.92683  Biso   1.000  O
  O77      1.0000 0.78519  0.15822  0.44321  Biso   1.000  O
  O78      1.0000 0.71481  0.34178  0.94321  Biso   1.000  O
  O79      1.0000 0.71481  0.65822  0.05679  Biso   1.000  O
  O80      1.0000 0.78519  0.84178  0.55679  Biso   1.000  O
  O81      1.0000 0.71481  0.34178  0.55679  Biso   1.000  O
  O82      1.0000 0.78519  0.15822  0.05679  Biso   1.000  O
  O83      1.0000 0.78519  0.84178  0.94321  Biso   1.000  O
  O84      1.0000 0.71481  0.65822  0.44321  Biso   1.000  O
  O85      1.0000 0.90590  0.24337  0.03704  Biso   1.000  O
  O86      1.0000 0.59410  0.25663  0.53704  Biso   1.000  O
  O87      1.0000 0.59410  0.74337  0.46296  Biso   1.000  O
  O88      1.0000 0.90590  0.75663  0.96296  Biso   1.000  O
  O89      1.0000 0.59410  0.25663  0.96296  Biso   1.000  O
  O90      1.0000 0.90590  0.24337  0.46296  Biso   1.000  O
  O91      1.0000 0.90590  0.75663  0.53704  Biso   1.000  O
  O92      1.0000 0.59410  0.74337  0.03704  Biso   1.000  O
  O93      1.0000 0.67369  0.71167  0.56691  Biso   1.000  O
  O94      1.0000 0.82631  0.78833  0.06691  Biso   1.000  O
  O95      1.0000 0.82631  0.21167  0.93309  Biso   1.000  O
  O96      1.0000 0.67369  0.28833  0.43309  Biso   1.000  O
  O97      1.0000 0.82631  0.78833  0.43309  Biso   1.000  O
  O98      1.0000 0.67369  0.71167  0.93309  Biso   1.000  O
  O99      1.0000 0.67369  0.28833  0.06691  Biso   1.000  O
  O100     1.0000 0.82631  0.21167  0.56691  Biso   1.000  O
  O101     1.0000 0.73228  0.84515  0.34760  Biso   1.000  O
  O102     1.0000 0.76772  0.65485  0.84761  Biso   1.000  O
  O103     1.0000 0.76772  0.34515  0.15239  Biso   1.000  O
  O104     1.0000 0.73228  0.15485  0.65239  Biso   1.000  O
  O105     1.0000 0.76772  0.65485  0.65239  Biso   1.000  O
  O106     1.0000 0.73228  0.84515  0.15239  Biso   1.000  O
  O107     1.0000 0.73228  0.15485  0.84761  Biso   1.000  O
  O108     1.0000 0.76772  0.34515  0.34760  Biso   1.000  O
  O109     1.0000 0.65970  0.94415  0.25000  Biso   1.000  O
  O110     1.0000 0.84030  0.55585  0.75000  Biso   1.000  O
  O111     1.0000 0.84030  0.44415  0.25000  Biso   1.000  O
  O112     1.0000 0.65970  0.05585  0.75000  Biso   1.000  O
  O113     1.0000 0.88610  0.43738  0.12791  Biso   1.000  O
  O114     1.0000 0.61390  0.06262  0.62791  Biso   1.000  O
  O115     1.0000 0.61390  0.93738  0.37209  Biso   1.000  O
  O116     1.0000 0.88610  0.56262  0.87209  Biso   1.000  O
  O117     1.0000 0.61390  0.06262  0.87209  Biso   1.000  O
  O118     1.0000 0.88610  0.43738  0.37209  Biso   1.000  O
  O119     1.0000 0.88610  0.56262  0.62791  Biso   1.000  O
  O120     1.0000 0.61390  0.93738  0.12791  Biso   1.000  O
  O121     1.0000 0.87253  0.00000  0.00000  Biso   1.000  O
  O122     1.0000 0.62747  0.50000  0.50000  Biso   1.000  O
  O123     1.0000 0.62747  0.50000  0.00000  Biso   1.000  O
  O124     1.0000 0.87253  0.00000  0.50000  Biso   1.000  O
  O125     1.0000 0.90131  0.50000  0.00000  Biso   1.000  O
  O126     1.0000 0.59869  0.00000  0.50000  Biso   1.000  O
  O127     1.0000 0.59869  0.00000  0.00000  Biso   1.000  O
  O128     1.0000 0.90131  0.50000  0.50000  Biso   1.000  O
  Ir1      1.0000 0.26587  0.77401  0.89113  Biso   1.000  Ir
  Ir2      1.0000 0.23413  0.72599  0.39113  Biso   1.000  Ir
  Ir3      1.0000 0.23413  0.27401  0.60887  Biso   1.000  Ir
  Ir4      1.0000 0.26587  0.22599  0.10887  Biso   1.000  Ir
  Ir5      1.0000 0.23413  0.72599  0.10887  Biso   1.000  Ir
  Ir6      1.0000 0.26587  0.77401  0.60887  Biso   1.000  Ir
  Ir7      1.0000 0.26587  0.22599  0.39113  Biso   1.000  Ir
  Ir8      1.0000 0.23413  0.27401  0.89113  Biso   1.000  Ir
  Ir9      1.0000 0.32106  0.95915  0.17174  Biso   1.000  Ir
  Ir10     1.0000 0.17894  0.54085  0.67174  Biso   1.000  Ir
  Ir11     1.0000 0.17894  0.45915  0.32826  Biso   1.000  Ir
  Ir12     1.0000 0.32106  0.04085  0.82826  Biso   1.000  Ir
  Ir13     1.0000 0.17894  0.54085  0.82826  Biso   1.000  Ir
  Ir14     1.0000 0.32106  0.95915  0.32826  Biso   1.000  Ir
  Ir15     1.0000 0.32106  0.04085  0.67174  Biso   1.000  Ir
  Ir16     1.0000 0.17894  0.45915  0.17174  Biso   1.000  Ir
  Ir17     1.0000 0.07645  0.60277  0.94049  Biso   1.000  Ir
  Ir18     1.0000 0.42355  0.89723  0.44049  Biso   1.000  Ir
  Ir19     1.0000 0.42355  0.10277  0.55951  Biso   1.000  Ir
  Ir20     1.0000 0.07645  0.39723  0.05951  Biso   1.000  Ir
  Ir21     1.0000 0.42355  0.89723  0.05951  Biso   1.000  Ir
  Ir22     1.0000 0.07645  0.60277  0.55951  Biso   1.000  Ir
  Ir23     1.0000 0.07645  0.39723  0.44049  Biso   1.000  Ir
  Ir24     1.0000 0.42355  0.10277  0.94049  Biso   1.000  Ir
  Ir25     1.0000 0.34703  0.65434  0.49337  Biso   1.000  Ir
  Ir26     1.0000 0.15297  0.84566  0.99337  Biso   1.000  Ir
  Ir27     1.0000 0.15297  0.15434  0.00663  Biso   1.000  Ir
  Ir28     1.0000 0.34703  0.34566  0.50663  Biso   1.000  Ir
  Ir29     1.0000 0.15297  0.84566  0.50663  Biso   1.000  Ir
  Ir30     1.0000 0.34703  0.65434  0.00663  Biso   1.000  Ir
  Ir31     1.0000 0.34703  0.34566  0.99337  Biso   1.000  Ir
  Ir32     1.0000 0.15297  0.15434  0.49337  Biso   1.000  Ir
  Ir33     1.0000 0.76587  0.27401  0.89113  Biso   1.000  Ir
  Ir34     1.0000 0.73413  0.22599  0.39113  Biso   1.000  Ir
  Ir35     1.0000 0.73413  0.77401  0.60887  Biso   1.000  Ir
  Ir36     1.0000 0.76587  0.72599  0.10887  Biso   1.000  Ir
  Ir37     1.0000 0.73413  0.22599  0.10887  Biso   1.000  Ir
  Ir38     1.0000 0.76587  0.27401  0.60887  Biso   1.000  Ir
  Ir39     1.0000 0.76587  0.72599  0.39113  Biso   1.000  Ir
  Ir40     1.0000 0.73413  0.77401  0.89113  Biso   1.000  Ir
  Ir41     1.0000 0.82106  0.45915  0.17174  Biso   1.000  Ir
  Ir42     1.0000 0.67894  0.04085  0.67174  Biso   1.000  Ir
  Ir43     1.0000 0.67894  0.95915  0.32826  Biso   1.000  Ir
  Ir44     1.0000 0.82106  0.54085  0.82826  Biso   1.000  Ir
  Ir45     1.0000 0.67894  0.04085  0.82826  Biso   1.000  Ir
  Ir46     1.0000 0.82106  0.45915  0.32826  Biso   1.000  Ir
  Ir47     1.0000 0.82106  0.54085  0.67174  Biso   1.000  Ir
  Ir48     1.0000 0.67894  0.95915  0.17174  Biso   1.000  Ir
  Ir49     1.0000 0.57645  0.10277  0.94049  Biso   1.000  Ir
  Ir50     1.0000 0.92355  0.39723  0.44049  Biso   1.000  Ir
  Ir51     1.0000 0.92355  0.60277  0.55951  Biso   1.000  Ir
  Ir52     1.0000 0.57645  0.89723  0.05951  Biso   1.000  Ir
  Ir53     1.0000 0.92355  0.39723  0.05951  Biso   1.000  Ir
  Ir54     1.0000 0.57645  0.10277  0.55951  Biso   1.000  Ir
  Ir55     1.0000 0.57645  0.89723  0.44049  Biso   1.000  Ir
  Ir56     1.0000 0.92355  0.60277  0.94049  Biso   1.000  Ir
  Ir57     1.0000 0.84703  0.15434  0.49337  Biso   1.000  Ir
  Ir58     1.0000 0.65297  0.34566  0.99337  Biso   1.000  Ir
  Ir59     1.0000 0.65297  0.65434  0.00663  Biso   1.000  Ir
  Ir60     1.0000 0.84703  0.84566  0.50663  Biso   1.000  Ir
  Ir61     1.0000 0.65297  0.34566  0.50663  Biso   1.000  Ir
  Ir62     1.0000 0.84703  0.15434  0.00663  Biso   1.000  Ir
  Ir63     1.0000 0.84703  0.84566  0.99337  Biso   1.000  Ir
  Ir64     1.0000 0.65297  0.65434  0.49337  Biso   1.000  Ir
