data_image0
_cell_length_a       8.99011
_cell_length_b       9.01623
_cell_length_c       5.60874
_cell_angle_alpha    90
_cell_angle_beta     90
_cell_angle_gamma    90

_symmetry_space_group_name_H-M    "P 1"
_symmetry_int_tables_number       1

loop_
  _symmetry_equiv_pos_as_xyz
  'x, y, z'

loop_
  _atom_site_label
  _atom_site_occupancy
  _atom_site_fract_x
  _atom_site_fract_y
  _atom_site_fract_z
  _atom_site_thermal_displace_type
  _atom_site_B_iso_or_equiv
  _atom_site_type_symbol
  O1       1.0000 0.82558  0.56265  0.50000  Biso   1.000  O
  O2       1.0000 0.17441  0.43735  0.50000  Biso   1.000  O
  O3       1.0000 0.67441  0.06265  0.50000  Biso   1.000  O
  O4       1.0000 0.32559  0.93735  0.50000  Biso   1.000  O
  O5       1.0000 0.87496  0.86449  0.25101  Biso   1.000  O
  O6       1.0000 0.12504  0.13551  0.25101  Biso   1.000  O
  O7       1.0000 0.62504  0.36449  0.74899  Biso   1.000  O
  O8       1.0000 0.37496  0.63551  0.74899  Biso   1.000  O
  O9       1.0000 0.12504  0.13551  0.74899  Biso   1.000  O
  O10      1.0000 0.87496  0.86449  0.74899  Biso   1.000  O
  O11      1.0000 0.37496  0.63551  0.25101  Biso   1.000  O
  O12      1.0000 0.62504  0.36449  0.25101  Biso   1.000  O
  O13      1.0000 0.92726  0.33192  0.00000  Biso   1.000  O
  O14      1.0000 0.07274  0.66808  0.00000  Biso   1.000  O
  O15      1.0000 0.57274  0.83192  0.00000  Biso   1.000  O
  O16      1.0000 0.42726  0.16808  0.00000  Biso   1.000  O
  Ir1      1.0000 0.78604  0.36402  0.50000  Biso   1.000  Ir
  Ir2      1.0000 0.21396  0.63598  0.50000  Biso   1.000  Ir
  Ir3      1.0000 0.71396  0.86402  0.50000  Biso   1.000  Ir
  Ir4      1.0000 0.28604  0.13598  0.50000  Biso   1.000  Ir
  Ir5      1.0000 0.87294  0.70585  0.00000  Biso   1.000  Ir
  Ir6      1.0000 0.12706  0.29414  0.00000  Biso   1.000  Ir
  Ir7      1.0000 0.62706  0.20585  0.00000  Biso   1.000  Ir
  Ir8      1.0000 0.37294  0.79414  0.00000  Biso   1.000  Ir
