data_image0
_cell_length_a       16.9197
_cell_length_b       16.3201
_cell_length_c       8.62322
_cell_angle_alpha    90
_cell_angle_beta     93.4025
_cell_angle_gamma    90

_symmetry_space_group_name_H-M    "P 1"
_symmetry_int_tables_number       1

loop_
  _symmetry_equiv_pos_as_xyz
  'x, y, z'

loop_
  _atom_site_label
  _atom_site_occupancy
  _atom_site_fract_x
  _atom_site_fract_y
  _atom_site_fract_z
  _atom_site_thermal_displace_type
  _atom_site_B_iso_or_equiv
  _atom_site_type_symbol
  O1       1.0000 0.85727  0.12576  0.04002  Biso   1.000  O
  O2       1.0000 0.14273  0.12576  0.95998  Biso   1.000  O
  O3       1.0000 0.14273  0.87424  0.95998  Biso   1.000  O
  O4       1.0000 0.85727  0.87424  0.04002  Biso   1.000  O
  O5       1.0000 0.63176  0.31412  0.29792  Biso   1.000  O
  O6       1.0000 0.36824  0.31412  0.70208  Biso   1.000  O
  O7       1.0000 0.36824  0.68588  0.70208  Biso   1.000  O
  O8       1.0000 0.63176  0.68588  0.29792  Biso   1.000  O
  O9       1.0000 0.80536  0.12647  0.36493  Biso   1.000  O
  O10      1.0000 0.19464  0.12647  0.63507  Biso   1.000  O
  O11      1.0000 0.19464  0.87353  0.63507  Biso   1.000  O
  O12      1.0000 0.80536  0.87353  0.36493  Biso   1.000  O
  O13      1.0000 0.90519  0.00000  0.61691  Biso   1.000  O
  O14      1.0000 0.09481  0.00000  0.38309  Biso   1.000  O
  O15      1.0000 0.67756  0.18593  0.05968  Biso   1.000  O
  O16      1.0000 0.32244  0.18593  0.94032  Biso   1.000  O
  O17      1.0000 0.32244  0.81407  0.94032  Biso   1.000  O
  O18      1.0000 0.67756  0.81407  0.05968  Biso   1.000  O
  O19      1.0000 0.50000  0.34941  0.50000  Biso   1.000  O
  O20      1.0000 0.50000  0.65059  0.50000  Biso   1.000  O
  O21      1.0000 0.50000  0.25189  0.00000  Biso   1.000  O
  O22      1.0000 0.50000  0.74811  0.00000  Biso   1.000  O
  O23      1.0000 0.72066  0.00000  0.09995  Biso   1.000  O
  O24      1.0000 0.27934  0.00000  0.90005  Biso   1.000  O
  O25      1.0000 0.35727  0.62576  0.04002  Biso   1.000  O
  O26      1.0000 0.64273  0.62576  0.95998  Biso   1.000  O
  O27      1.0000 0.64273  0.37424  0.95998  Biso   1.000  O
  O28      1.0000 0.35727  0.37424  0.04002  Biso   1.000  O
  O29      1.0000 0.13176  0.81412  0.29792  Biso   1.000  O
  O30      1.0000 0.86824  0.81412  0.70208  Biso   1.000  O
  O31      1.0000 0.86824  0.18588  0.70208  Biso   1.000  O
  O32      1.0000 0.13176  0.18588  0.29792  Biso   1.000  O
  O33      1.0000 0.30536  0.62647  0.36493  Biso   1.000  O
  O34      1.0000 0.69464  0.62647  0.63507  Biso   1.000  O
  O35      1.0000 0.69464  0.37353  0.63507  Biso   1.000  O
  O36      1.0000 0.30536  0.37353  0.36493  Biso   1.000  O
  O37      1.0000 0.40519  0.50000  0.61691  Biso   1.000  O
  O38      1.0000 0.59481  0.50000  0.38309  Biso   1.000  O
  O39      1.0000 0.17756  0.68593  0.05968  Biso   1.000  O
  O40      1.0000 0.82244  0.68593  0.94032  Biso   1.000  O
  O41      1.0000 0.82244  0.31407  0.94032  Biso   1.000  O
  O42      1.0000 0.17756  0.31407  0.05968  Biso   1.000  O
  O43      1.0000 0.00000  0.84941  0.50000  Biso   1.000  O
  O44      1.0000 0.00000  0.15059  0.50000  Biso   1.000  O
  O45      1.0000 0.00000  0.75189  0.00000  Biso   1.000  O
  O46      1.0000 0.00000  0.24811  0.00000  Biso   1.000  O
  O47      1.0000 0.22066  0.50000  0.09995  Biso   1.000  O
  O48      1.0000 0.77934  0.50000  0.90005  Biso   1.000  O
  Ir1      1.0000 0.60437  0.38524  0.45490  Biso   1.000  Ir
  Ir2      1.0000 0.39563  0.38524  0.54510  Biso   1.000  Ir
  Ir3      1.0000 0.39563  0.61476  0.54510  Biso   1.000  Ir
  Ir4      1.0000 0.60437  0.61476  0.45490  Biso   1.000  Ir
  Ir5      1.0000 0.61303  0.28270  0.08130  Biso   1.000  Ir
  Ir6      1.0000 0.38698  0.28270  0.91870  Biso   1.000  Ir
  Ir7      1.0000 0.38698  0.71730  0.91870  Biso   1.000  Ir
  Ir8      1.0000 0.61303  0.71730  0.08130  Biso   1.000  Ir
  Ir9      1.0000 0.76564  0.11026  0.14295  Biso   1.000  Ir
  Ir10     1.0000 0.23436  0.11026  0.85704  Biso   1.000  Ir
  Ir11     1.0000 0.23436  0.88974  0.85704  Biso   1.000  Ir
  Ir12     1.0000 0.76564  0.88974  0.14295  Biso   1.000  Ir
  Ir13     1.0000 0.10437  0.88524  0.45490  Biso   1.000  Ir
  Ir14     1.0000 0.89563  0.88524  0.54510  Biso   1.000  Ir
  Ir15     1.0000 0.89563  0.11476  0.54510  Biso   1.000  Ir
  Ir16     1.0000 0.10437  0.11476  0.45490  Biso   1.000  Ir
  Ir17     1.0000 0.11303  0.78270  0.08130  Biso   1.000  Ir
  Ir18     1.0000 0.88697  0.78270  0.91870  Biso   1.000  Ir
  Ir19     1.0000 0.88697  0.21730  0.91870  Biso   1.000  Ir
  Ir20     1.0000 0.11303  0.21730  0.08130  Biso   1.000  Ir
  Ir21     1.0000 0.26564  0.61026  0.14295  Biso   1.000  Ir
  Ir22     1.0000 0.73436  0.61026  0.85704  Biso   1.000  Ir
  Ir23     1.0000 0.73436  0.38974  0.85704  Biso   1.000  Ir
  Ir24     1.0000 0.26564  0.38974  0.14295  Biso   1.000  Ir
