data_image0
_cell_length_a       17.2988
_cell_length_b       17.2988
_cell_length_c       12.5068
_cell_angle_alpha    90
_cell_angle_beta     90
_cell_angle_gamma    90

_symmetry_space_group_name_H-M    "P 1"
_symmetry_int_tables_number       1

loop_
  _symmetry_equiv_pos_as_xyz
  'x, y, z'

loop_
  _atom_site_label
  _atom_site_occupancy
  _atom_site_fract_x
  _atom_site_fract_y
  _atom_site_fract_z
  _atom_site_thermal_displace_type
  _atom_site_B_iso_or_equiv
  _atom_site_type_symbol
  O1       1.0000 0.73973  0.50000  0.50000  Biso   1.000  O
  O2       1.0000 0.26026  0.50000  0.50000  Biso   1.000  O
  O3       1.0000 0.00000  0.76026  0.00000  Biso   1.000  O
  O4       1.0000 0.00000  0.23973  0.00000  Biso   1.000  O
  O5       1.0000 0.82584  0.36226  0.37215  Biso   1.000  O
  O6       1.0000 0.17416  0.63774  0.37215  Biso   1.000  O
  O7       1.0000 0.86226  0.67415  0.87215  Biso   1.000  O
  O8       1.0000 0.13774  0.32584  0.87215  Biso   1.000  O
  O9       1.0000 0.17416  0.36226  0.62785  Biso   1.000  O
  O10      1.0000 0.82584  0.63774  0.62785  Biso   1.000  O
  O11      1.0000 0.13774  0.67415  0.12785  Biso   1.000  O
  O12      1.0000 0.86226  0.32584  0.12785  Biso   1.000  O
  O13      1.0000 0.17416  0.63774  0.62785  Biso   1.000  O
  O14      1.0000 0.82584  0.36226  0.62785  Biso   1.000  O
  O15      1.0000 0.13774  0.32584  0.12785  Biso   1.000  O
  O16      1.0000 0.86226  0.67415  0.12785  Biso   1.000  O
  O17      1.0000 0.82584  0.63774  0.37215  Biso   1.000  O
  O18      1.0000 0.17416  0.36226  0.37215  Biso   1.000  O
  O19      1.0000 0.86226  0.32584  0.87215  Biso   1.000  O
  O20      1.0000 0.13774  0.67415  0.87215  Biso   1.000  O
  O21      1.0000 0.00000  0.37412  0.28943  Biso   1.000  O
  O22      1.0000 0.00000  0.62588  0.28943  Biso   1.000  O
  O23      1.0000 0.87412  0.50000  0.78943  Biso   1.000  O
  O24      1.0000 0.12588  0.50000  0.78943  Biso   1.000  O
  O25      1.0000 0.00000  0.37412  0.71057  Biso   1.000  O
  O26      1.0000 0.00000  0.62588  0.71057  Biso   1.000  O
  O27      1.0000 0.12588  0.50000  0.21057  Biso   1.000  O
  O28      1.0000 0.87412  0.50000  0.21057  Biso   1.000  O
  O29      1.0000 0.66828  0.33172  0.50000  Biso   1.000  O
  O30      1.0000 0.83172  0.16828  0.00000  Biso   1.000  O
  O31      1.0000 0.33172  0.33172  0.50000  Biso   1.000  O
  O32      1.0000 0.16828  0.16828  0.00000  Biso   1.000  O
  O33      1.0000 0.23973  0.00000  0.00000  Biso   1.000  O
  O34      1.0000 0.76026  0.00000  0.00000  Biso   1.000  O
  O35      1.0000 0.50000  0.26026  0.50000  Biso   1.000  O
  O36      1.0000 0.50000  0.73973  0.50000  Biso   1.000  O
  O37      1.0000 0.32584  0.86226  0.87215  Biso   1.000  O
  O38      1.0000 0.67415  0.13774  0.87215  Biso   1.000  O
  O39      1.0000 0.36226  0.17416  0.37215  Biso   1.000  O
  O40      1.0000 0.63774  0.82584  0.37215  Biso   1.000  O
  O41      1.0000 0.67415  0.86226  0.12785  Biso   1.000  O
  O42      1.0000 0.32584  0.13774  0.12785  Biso   1.000  O
  O43      1.0000 0.63774  0.17416  0.62785  Biso   1.000  O
  O44      1.0000 0.36226  0.82584  0.62785  Biso   1.000  O
  O45      1.0000 0.67415  0.13774  0.12785  Biso   1.000  O
  O46      1.0000 0.32584  0.86226  0.12785  Biso   1.000  O
  O47      1.0000 0.63774  0.82584  0.62785  Biso   1.000  O
  O48      1.0000 0.36226  0.17416  0.62785  Biso   1.000  O
  O49      1.0000 0.32584  0.13774  0.87215  Biso   1.000  O
  O50      1.0000 0.67415  0.86226  0.87215  Biso   1.000  O
  O51      1.0000 0.36226  0.82584  0.37215  Biso   1.000  O
  O52      1.0000 0.63774  0.17416  0.37215  Biso   1.000  O
  O53      1.0000 0.50000  0.87412  0.78943  Biso   1.000  O
  O54      1.0000 0.50000  0.12588  0.78943  Biso   1.000  O
  O55      1.0000 0.37412  0.00000  0.28943  Biso   1.000  O
  O56      1.0000 0.62588  0.00000  0.28943  Biso   1.000  O
  O57      1.0000 0.50000  0.87412  0.21057  Biso   1.000  O
  O58      1.0000 0.50000  0.12588  0.21057  Biso   1.000  O
  O59      1.0000 0.62588  0.00000  0.71057  Biso   1.000  O
  O60      1.0000 0.37412  0.00000  0.71057  Biso   1.000  O
  O61      1.0000 0.16828  0.83172  0.00000  Biso   1.000  O
  O62      1.0000 0.33172  0.66828  0.50000  Biso   1.000  O
  O63      1.0000 0.83172  0.83172  0.00000  Biso   1.000  O
  O64      1.0000 0.66828  0.66828  0.50000  Biso   1.000  O
  Ir1      1.0000 0.89079  0.60921  0.25000  Biso   1.000  Ir
  Ir2      1.0000 0.10921  0.39079  0.25000  Biso   1.000  Ir
  Ir3      1.0000 0.10921  0.60921  0.75000  Biso   1.000  Ir
  Ir4      1.0000 0.89079  0.39079  0.75000  Biso   1.000  Ir
  Ir5      1.0000 0.10921  0.39079  0.75000  Biso   1.000  Ir
  Ir6      1.0000 0.89079  0.60921  0.75000  Biso   1.000  Ir
  Ir7      1.0000 0.89079  0.39079  0.25000  Biso   1.000  Ir
  Ir8      1.0000 0.10921  0.60921  0.25000  Biso   1.000  Ir
  Ir9      1.0000 0.76553  0.38943  0.50000  Biso   1.000  Ir
  Ir10     1.0000 0.23447  0.61057  0.50000  Biso   1.000  Ir
  Ir11     1.0000 0.88943  0.73447  0.00000  Biso   1.000  Ir
  Ir12     1.0000 0.11057  0.26553  0.00000  Biso   1.000  Ir
  Ir13     1.0000 0.23447  0.38943  0.50000  Biso   1.000  Ir
  Ir14     1.0000 0.76553  0.61057  0.50000  Biso   1.000  Ir
  Ir15     1.0000 0.11057  0.73447  0.00000  Biso   1.000  Ir
  Ir16     1.0000 0.88943  0.26553  0.00000  Biso   1.000  Ir
  Ir17     1.0000 0.39079  0.10921  0.75000  Biso   1.000  Ir
  Ir18     1.0000 0.60921  0.89079  0.75000  Biso   1.000  Ir
  Ir19     1.0000 0.60921  0.10921  0.25000  Biso   1.000  Ir
  Ir20     1.0000 0.39079  0.89079  0.25000  Biso   1.000  Ir
  Ir21     1.0000 0.60921  0.89079  0.25000  Biso   1.000  Ir
  Ir22     1.0000 0.39079  0.10921  0.25000  Biso   1.000  Ir
  Ir23     1.0000 0.39079  0.89079  0.75000  Biso   1.000  Ir
  Ir24     1.0000 0.60921  0.10921  0.75000  Biso   1.000  Ir
  Ir25     1.0000 0.26553  0.88943  0.00000  Biso   1.000  Ir
  Ir26     1.0000 0.73447  0.11057  0.00000  Biso   1.000  Ir
  Ir27     1.0000 0.38943  0.23447  0.50000  Biso   1.000  Ir
  Ir28     1.0000 0.61057  0.76553  0.50000  Biso   1.000  Ir
  Ir29     1.0000 0.73447  0.88943  0.00000  Biso   1.000  Ir
  Ir30     1.0000 0.26553  0.11057  0.00000  Biso   1.000  Ir
  Ir31     1.0000 0.61057  0.23447  0.50000  Biso   1.000  Ir
  Ir32     1.0000 0.38943  0.76553  0.50000  Biso   1.000  Ir
