data_image0
_cell_length_a       22.107
_cell_length_b       8.01367
_cell_length_c       22.4267
_cell_angle_alpha    90
_cell_angle_beta     117.257
_cell_angle_gamma    90

_symmetry_space_group_name_H-M    "P 1"
_symmetry_int_tables_number       1

loop_
  _symmetry_equiv_pos_as_xyz
  'x, y, z'

loop_
  _atom_site_label
  _atom_site_occupancy
  _atom_site_fract_x
  _atom_site_fract_y
  _atom_site_fract_z
  _atom_site_thermal_displace_type
  _atom_site_B_iso_or_equiv
  _atom_site_type_symbol
  O1       1.0000 0.02162  0.71422  0.58298  Biso   1.000  O
  O2       1.0000 0.97838  0.21422  0.91702  Biso   1.000  O
  O3       1.0000 0.97838  0.28578  0.41702  Biso   1.000  O
  O4       1.0000 0.02162  0.78578  0.08298  Biso   1.000  O
  O5       1.0000 0.04300  0.93209  0.66477  Biso   1.000  O
  O6       1.0000 0.95700  0.43209  0.83523  Biso   1.000  O
  O7       1.0000 0.95700  0.06791  0.33523  Biso   1.000  O
  O8       1.0000 0.04300  0.56791  0.16477  Biso   1.000  O
  O9       1.0000 0.08154  0.93718  0.39299  Biso   1.000  O
  O10      1.0000 0.91846  0.43718  0.10701  Biso   1.000  O
  O11      1.0000 0.91846  0.06282  0.60701  Biso   1.000  O
  O12      1.0000 0.08154  0.56282  0.89299  Biso   1.000  O
  O13      1.0000 0.12308  0.36976  0.55412  Biso   1.000  O
  O14      1.0000 0.87692  0.86976  0.94588  Biso   1.000  O
  O15      1.0000 0.87692  0.63024  0.44588  Biso   1.000  O
  O16      1.0000 0.12308  0.13024  0.05412  Biso   1.000  O
  O17      1.0000 0.14485  0.58296  0.63768  Biso   1.000  O
  O18      1.0000 0.85515  0.08296  0.86232  Biso   1.000  O
  O19      1.0000 0.85515  0.41704  0.36232  Biso   1.000  O
  O20      1.0000 0.14485  0.91704  0.13768  Biso   1.000  O
  O21      1.0000 0.18824  0.00619  0.80333  Biso   1.000  O
  O22      1.0000 0.81176  0.50619  0.69667  Biso   1.000  O
  O23      1.0000 0.81176  0.99381  0.19667  Biso   1.000  O
  O24      1.0000 0.18824  0.49381  0.30333  Biso   1.000  O
  O25      1.0000 0.22107  0.47635  0.02353  Biso   1.000  O
  O26      1.0000 0.77893  0.97634  0.47647  Biso   1.000  O
  O27      1.0000 0.77894  0.52365  0.97647  Biso   1.000  O
  O28      1.0000 0.22107  0.02366  0.52353  Biso   1.000  O
  O29      1.0000 0.24588  0.25909  0.10771  Biso   1.000  O
  O30      1.0000 0.75412  0.75909  0.39229  Biso   1.000  O
  O31      1.0000 0.75412  0.74091  0.89229  Biso   1.000  O
  O32      1.0000 0.24588  0.24091  0.60771  Biso   1.000  O
  O33      1.0000 0.28917  0.83584  0.27559  Biso   1.000  O
  O34      1.0000 0.71083  0.33584  0.22441  Biso   1.000  O
  O35      1.0000 0.71083  0.16416  0.72441  Biso   1.000  O
  O36      1.0000 0.28917  0.66416  0.77559  Biso   1.000  O
  O37      1.0000 0.30675  0.62738  0.35754  Biso   1.000  O
  O38      1.0000 0.69325  0.12738  0.14246  Biso   1.000  O
  O39      1.0000 0.69325  0.37262  0.64246  Biso   1.000  O
  O40      1.0000 0.30675  0.87262  0.85754  Biso   1.000  O
  O41      1.0000 0.38891  0.16937  0.24443  Biso   1.000  O
  O42      1.0000 0.61109  0.66937  0.25557  Biso   1.000  O
  O43      1.0000 0.61109  0.83063  0.75557  Biso   1.000  O
  O44      1.0000 0.38891  0.33063  0.74443  Biso   1.000  O
  O45      1.0000 0.41005  0.96504  0.32584  Biso   1.000  O
  O46      1.0000 0.58995  0.46504  0.17416  Biso   1.000  O
  O47      1.0000 0.58995  0.03496  0.67416  Biso   1.000  O
  O48      1.0000 0.41005  0.53496  0.82584  Biso   1.000  O
  Ir1      1.0000 0.06472  0.76672  0.33097  Biso   1.000  Ir
  Ir2      1.0000 0.93528  0.26672  0.16903  Biso   1.000  Ir
  Ir3      1.0000 0.93528  0.23328  0.66903  Biso   1.000  Ir
  Ir4      1.0000 0.06472  0.73328  0.83097  Biso   1.000  Ir
  Ir5      1.0000 0.20383  0.17044  0.86671  Biso   1.000  Ir
  Ir6      1.0000 0.79617  0.67044  0.63329  Biso   1.000  Ir
  Ir7      1.0000 0.79617  0.82956  0.13329  Biso   1.000  Ir
  Ir8      1.0000 0.20383  0.32956  0.36671  Biso   1.000  Ir
  Ir9      1.0000 0.31488  0.92066  0.56497  Biso   1.000  Ir
  Ir10     1.0000 0.68512  0.42066  0.93503  Biso   1.000  Ir
  Ir11     1.0000 0.68512  0.07935  0.43503  Biso   1.000  Ir
  Ir12     1.0000 0.31488  0.57934  0.06497  Biso   1.000  Ir
  Ir13     1.0000 0.41707  0.57426  0.46586  Biso   1.000  Ir
  Ir14     1.0000 0.58293  0.07426  0.03415  Biso   1.000  Ir
  Ir15     1.0000 0.58293  0.42574  0.53414  Biso   1.000  Ir
  Ir16     1.0000 0.41707  0.92574  0.96585  Biso   1.000  Ir
  Ir17     1.0000 0.47898  0.40090  0.06855  Biso   1.000  Ir
  Ir18     1.0000 0.52102  0.90090  0.43145  Biso   1.000  Ir
  Ir19     1.0000 0.52102  0.59910  0.93145  Biso   1.000  Ir
  Ir20     1.0000 0.47898  0.09910  0.56855  Biso   1.000  Ir
  Ir21     1.0000 0.48220  0.27166  0.28441  Biso   1.000  Ir
  Ir22     1.0000 0.51780  0.77166  0.21558  Biso   1.000  Ir
  Ir23     1.0000 0.51780  0.72834  0.71559  Biso   1.000  Ir
  Ir24     1.0000 0.48220  0.22834  0.78441  Biso   1.000  Ir
