data_image0
_cell_length_a       6.35859
_cell_length_b       6.22183
_cell_length_c       18.6818
_cell_angle_alpha    90
_cell_angle_beta     90
_cell_angle_gamma    90

_symmetry_space_group_name_H-M    "P 1"
_symmetry_int_tables_number       1

loop_
  _symmetry_equiv_pos_as_xyz
  'x, y, z'

loop_
  _atom_site_label
  _atom_site_occupancy
  _atom_site_fract_x
  _atom_site_fract_y
  _atom_site_fract_z
  _atom_site_thermal_displace_type
  _atom_site_B_iso_or_equiv
  _atom_site_type_symbol
  Ir1      1.0000 0.00000  0.63676  0.38936  Biso   1.000  Ir
  Ir2      1.0000 0.00000  0.86324  0.88936  Biso   1.000  Ir
  Ir3      1.0000 0.00000  0.13676  0.11064  Biso   1.000  Ir
  Ir4      1.0000 0.00000  0.36324  0.61064  Biso   1.000  Ir
  Ir5      1.0000 0.50000  0.13676  0.38936  Biso   1.000  Ir
  Ir6      1.0000 0.50000  0.36324  0.88936  Biso   1.000  Ir
  Ir7      1.0000 0.50000  0.63676  0.11064  Biso   1.000  Ir
  Ir8      1.0000 0.50000  0.86324  0.61064  Biso   1.000  Ir
  O1       1.0000 0.00000  0.13232  0.43729  Biso   1.000  O
  O2       1.0000 0.00000  0.36768  0.93729  Biso   1.000  O
  O3       1.0000 0.00000  0.63232  0.06271  Biso   1.000  O
  O4       1.0000 0.00000  0.86768  0.56271  Biso   1.000  O
  O5       1.0000 0.75000  0.62615  0.75000  Biso   1.000  O
  O6       1.0000 0.75000  0.37385  0.25000  Biso   1.000  O
  O7       1.0000 0.25000  0.37385  0.25000  Biso   1.000  O
  O8       1.0000 0.25000  0.62615  0.75000  Biso   1.000  O
  O9       1.0000 0.50000  0.63232  0.43729  Biso   1.000  O
  O10      1.0000 0.50000  0.86768  0.93729  Biso   1.000  O
  O11      1.0000 0.50000  0.13232  0.06271  Biso   1.000  O
  O12      1.0000 0.50000  0.36768  0.56271  Biso   1.000  O
  O13      1.0000 0.25000  0.12615  0.75000  Biso   1.000  O
  O14      1.0000 0.25000  0.87385  0.25000  Biso   1.000  O
  O15      1.0000 0.75000  0.87385  0.25000  Biso   1.000  O
  O16      1.0000 0.75000  0.12615  0.75000  Biso   1.000  O
