data_image0
_cell_length_a       5.50474
_cell_length_b       11.7671
_cell_length_c       4.82067
_cell_angle_alpha    90
_cell_angle_beta     90
_cell_angle_gamma    90

_symmetry_space_group_name_H-M    "P 1"
_symmetry_int_tables_number       1

loop_
  _symmetry_equiv_pos_as_xyz
  'x, y, z'

loop_
  _atom_site_label
  _atom_site_occupancy
  _atom_site_fract_x
  _atom_site_fract_y
  _atom_site_fract_z
  _atom_site_thermal_displace_type
  _atom_site_B_iso_or_equiv
  _atom_site_type_symbol
  O1       1.0000 0.08029  0.09516  0.92228  Biso   1.000  O
  O2       1.0000 0.41971  0.90484  0.92228  Biso   1.000  O
  O3       1.0000 0.41971  0.59516  0.57772  Biso   1.000  O
  O4       1.0000 0.08029  0.40484  0.57772  Biso   1.000  O
  O5       1.0000 0.91971  0.90484  0.07772  Biso   1.000  O
  O6       1.0000 0.58029  0.09516  0.07772  Biso   1.000  O
  O7       1.0000 0.58029  0.40484  0.42228  Biso   1.000  O
  O8       1.0000 0.91971  0.59516  0.42228  Biso   1.000  O
  O9       1.0000 0.86662  0.18545  0.50230  Biso   1.000  O
  O10      1.0000 0.63337  0.81455  0.50230  Biso   1.000  O
  O11      1.0000 0.63337  0.68545  0.99770  Biso   1.000  O
  O12      1.0000 0.86662  0.31455  0.99770  Biso   1.000  O
  O13      1.0000 0.13337  0.81455  0.49770  Biso   1.000  O
  O14      1.0000 0.36662  0.18545  0.49770  Biso   1.000  O
  O15      1.0000 0.36662  0.31455  0.00230  Biso   1.000  O
  O16      1.0000 0.13337  0.68545  0.00230  Biso   1.000  O
  Ir1      1.0000 0.25000  0.00000  0.22339  Biso   1.000  Ir
  Ir2      1.0000 0.25000  0.50000  0.27661  Biso   1.000  Ir
  Ir3      1.0000 0.75000  0.00000  0.77661  Biso   1.000  Ir
  Ir4      1.0000 0.75000  0.50000  0.72339  Biso   1.000  Ir
  Ir5      1.0000 0.62181  0.25000  0.25000  Biso   1.000  Ir
  Ir6      1.0000 0.87819  0.75000  0.25000  Biso   1.000  Ir
  Ir7      1.0000 0.37819  0.75000  0.75000  Biso   1.000  Ir
  Ir8      1.0000 0.12181  0.25000  0.75000  Biso   1.000  Ir
