data_image0
_cell_length_a       3.7296
_cell_length_b       5.22067
_cell_length_c       24.9764
_cell_angle_alpha    90
_cell_angle_beta     90
_cell_angle_gamma    90

_symmetry_space_group_name_H-M    "P 1"
_symmetry_int_tables_number       1

loop_
  _symmetry_equiv_pos_as_xyz
  'x, y, z'

loop_
  _atom_site_label
  _atom_site_occupancy
  _atom_site_fract_x
  _atom_site_fract_y
  _atom_site_fract_z
  _atom_site_thermal_displace_type
  _atom_site_B_iso_or_equiv
  _atom_site_type_symbol
  O1       1.0000 0.00000  0.50000  0.91587  Biso   1.000  O
  O2       1.0000 0.50000  0.00000  0.08413  Biso   1.000  O
  O3       1.0000 0.00000  0.50000  0.51793  Biso   1.000  O
  O4       1.0000 0.50000  0.00000  0.48207  Biso   1.000  O
  O5       1.0000 0.00000  0.00000  0.98207  Biso   1.000  O
  O6       1.0000 0.50000  0.50000  0.01793  Biso   1.000  O
  O7       1.0000 0.00000  0.00000  0.58414  Biso   1.000  O
  O8       1.0000 0.50000  0.50000  0.41586  Biso   1.000  O
  Ir1      1.0000 0.00000  0.50000  0.17138  Biso   1.000  Ir
  Ir2      1.0000 0.50000  0.00000  0.82862  Biso   1.000  Ir
  Ir3      1.0000 0.00000  0.00000  0.32865  Biso   1.000  Ir
  Ir4      1.0000 0.50000  0.50000  0.67135  Biso   1.000  Ir
