data_image0
_cell_length_a       18.3371
_cell_length_b       18.3372
_cell_length_c       18.0702
_cell_angle_alpha    90
_cell_angle_beta     90
_cell_angle_gamma    120

_symmetry_space_group_name_H-M    "P 1"
_symmetry_int_tables_number       1

loop_
  _symmetry_equiv_pos_as_xyz
  'x, y, z'

loop_
  _atom_site_label
  _atom_site_occupancy
  _atom_site_fract_x
  _atom_site_fract_y
  _atom_site_fract_z
  _atom_site_thermal_displace_type
  _atom_site_B_iso_or_equiv
  _atom_site_type_symbol
  Ir1      1.0000 0.00000  0.00000  0.00000  Biso   1.000  Ir
  Ir2      1.0000 0.33333  0.66667  0.16667  Biso   1.000  Ir
  Ir3      1.0000 0.33333  0.41673  0.91667  Biso   1.000  Ir
  Ir4      1.0000 0.58328  0.91661  0.91667  Biso   1.000  Ir
  Ir5      1.0000 0.08339  0.66667  0.91667  Biso   1.000  Ir
  Ir6      1.0000 0.33333  0.91661  0.41667  Biso   1.000  Ir
  Ir7      1.0000 0.08339  0.41673  0.41667  Biso   1.000  Ir
  Ir8      1.0000 0.58328  0.66667  0.41667  Biso   1.000  Ir
  Ir9      1.0000 0.66667  0.33333  0.33333  Biso   1.000  Ir
  Ir10     1.0000 0.00000  0.00000  0.50000  Biso   1.000  Ir
  Ir11     1.0000 0.00000  0.75006  0.25000  Biso   1.000  Ir
  Ir12     1.0000 0.24994  0.24994  0.25000  Biso   1.000  Ir
  Ir13     1.0000 0.75006  0.00000  0.25000  Biso   1.000  Ir
  Ir14     1.0000 0.00000  0.24994  0.75000  Biso   1.000  Ir
  Ir15     1.0000 0.75006  0.75006  0.75000  Biso   1.000  Ir
  Ir16     1.0000 0.24994  0.00000  0.75000  Biso   1.000  Ir
  Ir17     1.0000 0.33333  0.66667  0.66667  Biso   1.000  Ir
  Ir18     1.0000 0.66667  0.33333  0.83333  Biso   1.000  Ir
  Ir19     1.0000 0.66667  0.08339  0.58333  Biso   1.000  Ir
  Ir20     1.0000 0.91661  0.58327  0.58333  Biso   1.000  Ir
  Ir21     1.0000 0.41673  0.33333  0.58333  Biso   1.000  Ir
  Ir22     1.0000 0.66667  0.58327  0.08333  Biso   1.000  Ir
  Ir23     1.0000 0.41673  0.08339  0.08333  Biso   1.000  Ir
  Ir24     1.0000 0.91661  0.33333  0.08333  Biso   1.000  Ir
  O1       1.0000 0.33333  0.66667  0.56229  Biso   1.000  O
  O2       1.0000 0.33333  0.66667  0.27104  Biso   1.000  O
  O3       1.0000 0.33333  0.66667  0.77104  Biso   1.000  O
  O4       1.0000 0.33333  0.66667  0.06229  Biso   1.000  O
  O5       1.0000 0.68195  0.86336  0.20918  Biso   1.000  O
  O6       1.0000 0.13664  0.81859  0.20918  Biso   1.000  O
  O7       1.0000 0.18141  0.31805  0.20918  Biso   1.000  O
  O8       1.0000 0.15192  0.80330  0.95749  Biso   1.000  O
  O9       1.0000 0.65138  0.84808  0.95749  Biso   1.000  O
  O10      1.0000 0.19670  0.34862  0.95749  Biso   1.000  O
  O11      1.0000 0.98472  0.46997  0.12415  Biso   1.000  O
  O12      1.0000 0.53003  0.51474  0.12415  Biso   1.000  O
  O13      1.0000 0.48526  0.01528  0.12415  Biso   1.000  O
  O14      1.0000 0.51475  0.53003  0.37585  Biso   1.000  O
  O15      1.0000 0.01528  0.48525  0.37585  Biso   1.000  O
  O16      1.0000 0.46997  0.98471  0.37585  Biso   1.000  O
  O17      1.0000 0.00000  0.00000  0.89562  Biso   1.000  O
  O18      1.0000 0.00000  0.00000  0.60438  Biso   1.000  O
  O19      1.0000 0.00000  0.00000  0.10438  Biso   1.000  O
  O20      1.0000 0.00000  0.00000  0.39562  Biso   1.000  O
  O21      1.0000 0.34862  0.19670  0.54251  Biso   1.000  O
  O22      1.0000 0.80330  0.15192  0.54251  Biso   1.000  O
  O23      1.0000 0.84808  0.65138  0.54251  Biso   1.000  O
  O24      1.0000 0.81859  0.13664  0.29082  Biso   1.000  O
  O25      1.0000 0.31805  0.18141  0.29082  Biso   1.000  O
  O26      1.0000 0.86336  0.68195  0.29082  Biso   1.000  O
  O27      1.0000 0.65138  0.80330  0.45749  Biso   1.000  O
  O28      1.0000 0.19670  0.84808  0.45749  Biso   1.000  O
  O29      1.0000 0.15192  0.34862  0.45749  Biso   1.000  O
  O30      1.0000 0.18141  0.86336  0.70918  Biso   1.000  O
  O31      1.0000 0.68195  0.81859  0.70918  Biso   1.000  O
  O32      1.0000 0.13664  0.31805  0.70918  Biso   1.000  O
  O33      1.0000 0.66667  0.33333  0.22896  Biso   1.000  O
  O34      1.0000 0.66667  0.33333  0.93771  Biso   1.000  O
  O35      1.0000 0.66667  0.33333  0.43771  Biso   1.000  O
  O36      1.0000 0.66667  0.33333  0.72896  Biso   1.000  O
  O37      1.0000 0.01528  0.53003  0.87585  Biso   1.000  O
  O38      1.0000 0.46997  0.48525  0.87585  Biso   1.000  O
  O39      1.0000 0.51475  0.98471  0.87585  Biso   1.000  O
  O40      1.0000 0.48526  0.46997  0.62415  Biso   1.000  O
  O41      1.0000 0.98472  0.51474  0.62415  Biso   1.000  O
  O42      1.0000 0.53003  0.01528  0.62415  Biso   1.000  O
  O43      1.0000 0.31805  0.13664  0.79082  Biso   1.000  O
  O44      1.0000 0.86336  0.18141  0.79082  Biso   1.000  O
  O45      1.0000 0.81859  0.68195  0.79082  Biso   1.000  O
  O46      1.0000 0.84808  0.19670  0.04251  Biso   1.000  O
  O47      1.0000 0.34862  0.15192  0.04251  Biso   1.000  O
  O48      1.0000 0.80330  0.65138  0.04251  Biso   1.000  O
