data_image0
_cell_length_a       4.18507
_cell_length_b       4.18507
_cell_length_c       36.7132
_cell_angle_alpha    90
_cell_angle_beta     90
_cell_angle_gamma    120

_symmetry_space_group_name_H-M    "P 1"
_symmetry_int_tables_number       1

loop_
  _symmetry_equiv_pos_as_xyz
  'x, y, z'

loop_
  _atom_site_label
  _atom_site_occupancy
  _atom_site_fract_x
  _atom_site_fract_y
  _atom_site_fract_z
  _atom_site_thermal_displace_type
  _atom_site_B_iso_or_equiv
  _atom_site_type_symbol
  O1       1.0000 0.33333  0.66667  0.04072  Biso   1.000  O
  O2       1.0000 0.33333  0.66667  0.12552  Biso   1.000  O
  O3       1.0000 0.00000  0.00000  0.20791  Biso   1.000  O
  O4       1.0000 0.33333  0.66667  0.29211  Biso   1.000  O
  O5       1.0000 0.00000  0.00000  0.37406  Biso   1.000  O
  O6       1.0000 0.00000  0.00000  0.45886  Biso   1.000  O
  O7       1.0000 0.66667  0.33333  0.54125  Biso   1.000  O
  O8       1.0000 0.00000  0.00000  0.62544  Biso   1.000  O
  O9       1.0000 0.66667  0.33333  0.70739  Biso   1.000  O
  O10      1.0000 0.66667  0.33333  0.79219  Biso   1.000  O
  O11      1.0000 0.33333  0.66667  0.87458  Biso   1.000  O
  O12      1.0000 0.66667  0.33333  0.95877  Biso   1.000  O
  Ir1      1.0000 0.00000  0.00000  0.08307  Biso   1.000  Ir
  Ir2      1.0000 0.66667  0.33333  0.25000  Biso   1.000  Ir
  Ir3      1.0000 0.66667  0.33333  0.41640  Biso   1.000  Ir
  Ir4      1.0000 0.33333  0.66667  0.58333  Biso   1.000  Ir
  Ir5      1.0000 0.33333  0.66667  0.74973  Biso   1.000  Ir
  Ir6      1.0000 0.00000  0.00000  0.91667  Biso   1.000  Ir
