data_image0
_cell_length_a       12.963
_cell_length_b       12.9622
_cell_length_c       8.48877
_cell_angle_alpha    90
_cell_angle_beta     90
_cell_angle_gamma    90

_symmetry_space_group_name_H-M    "P 1"
_symmetry_int_tables_number       1

loop_
  _symmetry_equiv_pos_as_xyz
  'x, y, z'

loop_
  _atom_site_label
  _atom_site_occupancy
  _atom_site_fract_x
  _atom_site_fract_y
  _atom_site_fract_z
  _atom_site_thermal_displace_type
  _atom_site_B_iso_or_equiv
  _atom_site_type_symbol
  O1       1.0000 0.74866  0.58725  0.87477  Biso   1.000  O
  O2       1.0000 0.25134  0.41275  0.87477  Biso   1.000  O
  O3       1.0000 0.25134  0.58725  0.12522  Biso   1.000  O
  O4       1.0000 0.74866  0.41275  0.12522  Biso   1.000  O
  O5       1.0000 0.75134  0.41275  0.62523  Biso   1.000  O
  O6       1.0000 0.24866  0.58725  0.62523  Biso   1.000  O
  O7       1.0000 0.24866  0.41275  0.37477  Biso   1.000  O
  O8       1.0000 0.75134  0.58725  0.37477  Biso   1.000  O
  O9       1.0000 0.91275  0.74863  0.87478  Biso   1.000  O
  O10      1.0000 0.08725  0.25137  0.87478  Biso   1.000  O
  O11      1.0000 0.08725  0.74863  0.12522  Biso   1.000  O
  O12      1.0000 0.91275  0.25137  0.12522  Biso   1.000  O
  O13      1.0000 0.08725  0.75137  0.62522  Biso   1.000  O
  O14      1.0000 0.91275  0.24863  0.62522  Biso   1.000  O
  O15      1.0000 0.91275  0.75137  0.37478  Biso   1.000  O
  O16      1.0000 0.08725  0.24863  0.37478  Biso   1.000  O
  O17      1.0000 0.07549  0.92330  0.87543  Biso   1.000  O
  O18      1.0000 0.92451  0.07670  0.87543  Biso   1.000  O
  O19      1.0000 0.92451  0.92330  0.12457  Biso   1.000  O
  O20      1.0000 0.07549  0.07670  0.12457  Biso   1.000  O
  O21      1.0000 0.92451  0.57670  0.62457  Biso   1.000  O
  O22      1.0000 0.07549  0.42330  0.62457  Biso   1.000  O
  O23      1.0000 0.07549  0.57670  0.37543  Biso   1.000  O
  O24      1.0000 0.92451  0.42330  0.37543  Biso   1.000  O
  O25      1.0000 0.07670  0.57549  0.87543  Biso   1.000  O
  O26      1.0000 0.92330  0.42451  0.87543  Biso   1.000  O
  O27      1.0000 0.92330  0.57549  0.12457  Biso   1.000  O
  O28      1.0000 0.07670  0.42451  0.12457  Biso   1.000  O
  O29      1.0000 0.42330  0.42451  0.62457  Biso   1.000  O
  O30      1.0000 0.57670  0.57549  0.62457  Biso   1.000  O
  O31      1.0000 0.57670  0.42451  0.37543  Biso   1.000  O
  O32      1.0000 0.42330  0.57549  0.37543  Biso   1.000  O
  O33      1.0000 0.24866  0.08725  0.87477  Biso   1.000  O
  O34      1.0000 0.75134  0.91275  0.87477  Biso   1.000  O
  O35      1.0000 0.75134  0.08725  0.12522  Biso   1.000  O
  O36      1.0000 0.24866  0.91275  0.12522  Biso   1.000  O
  O37      1.0000 0.25134  0.91275  0.62523  Biso   1.000  O
  O38      1.0000 0.74866  0.08725  0.62523  Biso   1.000  O
  O39      1.0000 0.74866  0.91275  0.37477  Biso   1.000  O
  O40      1.0000 0.25134  0.08725  0.37477  Biso   1.000  O
  O41      1.0000 0.41275  0.24863  0.87478  Biso   1.000  O
  O42      1.0000 0.58725  0.75137  0.87478  Biso   1.000  O
  O43      1.0000 0.58725  0.24863  0.12522  Biso   1.000  O
  O44      1.0000 0.41275  0.75137  0.12522  Biso   1.000  O
  O45      1.0000 0.58725  0.25137  0.62522  Biso   1.000  O
  O46      1.0000 0.41275  0.74863  0.62522  Biso   1.000  O
  O47      1.0000 0.41275  0.25137  0.37478  Biso   1.000  O
  O48      1.0000 0.58725  0.74863  0.37478  Biso   1.000  O
  O49      1.0000 0.57549  0.42330  0.87543  Biso   1.000  O
  O50      1.0000 0.42451  0.57670  0.87543  Biso   1.000  O
  O51      1.0000 0.42451  0.42330  0.12457  Biso   1.000  O
  O52      1.0000 0.57549  0.57670  0.12457  Biso   1.000  O
  O53      1.0000 0.42451  0.07670  0.62457  Biso   1.000  O
  O54      1.0000 0.57549  0.92330  0.62457  Biso   1.000  O
  O55      1.0000 0.57549  0.07670  0.37543  Biso   1.000  O
  O56      1.0000 0.42451  0.92330  0.37543  Biso   1.000  O
  O57      1.0000 0.57670  0.07549  0.87543  Biso   1.000  O
  O58      1.0000 0.42330  0.92451  0.87543  Biso   1.000  O
  O59      1.0000 0.42330  0.07549  0.12457  Biso   1.000  O
  O60      1.0000 0.57670  0.92451  0.12457  Biso   1.000  O
  O61      1.0000 0.92330  0.92451  0.62457  Biso   1.000  O
  O62      1.0000 0.07670  0.07549  0.62457  Biso   1.000  O
  O63      1.0000 0.07670  0.92451  0.37543  Biso   1.000  O
  O64      1.0000 0.92330  0.07549  0.37543  Biso   1.000  O
  Ir1      1.0000 0.09328  0.39480  0.87453  Biso   1.000  Ir
  Ir2      1.0000 0.90672  0.60520  0.87453  Biso   1.000  Ir
  Ir3      1.0000 0.90672  0.39480  0.12547  Biso   1.000  Ir
  Ir4      1.0000 0.09328  0.60520  0.12547  Biso   1.000  Ir
  Ir5      1.0000 0.90672  0.10520  0.62547  Biso   1.000  Ir
  Ir6      1.0000 0.09328  0.89480  0.62547  Biso   1.000  Ir
  Ir7      1.0000 0.09328  0.10520  0.37453  Biso   1.000  Ir
  Ir8      1.0000 0.90672  0.89480  0.37453  Biso   1.000  Ir
  Ir9      1.0000 0.60516  0.59329  0.87453  Biso   1.000  Ir
  Ir10     1.0000 0.39484  0.40671  0.87453  Biso   1.000  Ir
  Ir11     1.0000 0.39484  0.59329  0.12547  Biso   1.000  Ir
  Ir12     1.0000 0.60516  0.40671  0.12547  Biso   1.000  Ir
  Ir13     1.0000 0.89484  0.40671  0.62547  Biso   1.000  Ir
  Ir14     1.0000 0.10516  0.59329  0.62547  Biso   1.000  Ir
  Ir15     1.0000 0.10516  0.40671  0.37453  Biso   1.000  Ir
  Ir16     1.0000 0.89484  0.59329  0.37453  Biso   1.000  Ir
  Ir17     1.0000 0.59328  0.89480  0.87453  Biso   1.000  Ir
  Ir18     1.0000 0.40672  0.10520  0.87453  Biso   1.000  Ir
  Ir19     1.0000 0.40672  0.89480  0.12547  Biso   1.000  Ir
  Ir20     1.0000 0.59328  0.10520  0.12547  Biso   1.000  Ir
  Ir21     1.0000 0.40672  0.60520  0.62547  Biso   1.000  Ir
  Ir22     1.0000 0.59328  0.39480  0.62547  Biso   1.000  Ir
  Ir23     1.0000 0.59328  0.60520  0.37453  Biso   1.000  Ir
  Ir24     1.0000 0.40672  0.39480  0.37453  Biso   1.000  Ir
  Ir25     1.0000 0.10516  0.09329  0.87453  Biso   1.000  Ir
  Ir26     1.0000 0.89484  0.90671  0.87453  Biso   1.000  Ir
  Ir27     1.0000 0.89484  0.09329  0.12547  Biso   1.000  Ir
  Ir28     1.0000 0.10516  0.90671  0.12547  Biso   1.000  Ir
  Ir29     1.0000 0.39484  0.90671  0.62547  Biso   1.000  Ir
  Ir30     1.0000 0.60516  0.09329  0.62547  Biso   1.000  Ir
  Ir31     1.0000 0.60516  0.90671  0.37453  Biso   1.000  Ir
  Ir32     1.0000 0.39484  0.09329  0.37453  Biso   1.000  Ir
