data_image0
_cell_length_a       3.58424
_cell_length_b       3.84789
_cell_length_c       20.9881
_cell_angle_alpha    91.0422
_cell_angle_beta     91.7507
_cell_angle_gamma    112.445

_symmetry_space_group_name_H-M    "P 1"
_symmetry_int_tables_number       1

loop_
  _symmetry_equiv_pos_as_xyz
  'x, y, z'

loop_
  _atom_site_label
  _atom_site_occupancy
  _atom_site_fract_x
  _atom_site_fract_y
  _atom_site_fract_z
  _atom_site_thermal_displace_type
  _atom_site_B_iso_or_equiv
  _atom_site_type_symbol
  O1       1.0000 0.37729  0.20422  0.34785  Biso   1.000  O
  O2       1.0000 0.62271  0.79578  0.65215  Biso   1.000  O
  O3       1.0000 0.37723  0.70391  0.34776  Biso   1.000  O
  O4       1.0000 0.62277  0.29609  0.65224  Biso   1.000  O
  Ir1      1.0000 0.00000  0.50000  0.00000  Biso   1.000  Ir
  Ir2      1.0000 0.00000  0.00000  0.00000  Biso   1.000  Ir
