data_image0
_cell_length_a       8.50194
_cell_length_b       9.45794
_cell_length_c       9.51385
_cell_angle_alpha    89.8261
_cell_angle_beta     89.9545
_cell_angle_gamma    89.9193

_symmetry_space_group_name_H-M    "P 1"
_symmetry_int_tables_number       1

loop_
  _symmetry_equiv_pos_as_xyz
  'x, y, z'

loop_
  _atom_site_label
  _atom_site_occupancy
  _atom_site_fract_x
  _atom_site_fract_y
  _atom_site_fract_z
  _atom_site_thermal_displace_type
  _atom_site_B_iso_or_equiv
  _atom_site_type_symbol
  O1       1.0000 0.38121  0.40324  0.25463  Biso   1.000  O
  O2       1.0000 0.86936  0.40151  0.25239  Biso   1.000  O
  O3       1.0000 0.88142  0.75015  0.59761  Biso   1.000  O
  O4       1.0000 0.12452  0.25180  0.39713  Biso   1.000  O
  O5       1.0000 0.12421  0.25232  0.10047  Biso   1.000  O
  O6       1.0000 0.13172  0.90234  0.74945  Biso   1.000  O
  O7       1.0000 0.36880  0.74249  0.59871  Biso   1.000  O
  O8       1.0000 0.87462  0.75280  0.89862  Biso   1.000  O
  O9       1.0000 0.63073  0.59974  0.74777  Biso   1.000  O
  O10      1.0000 0.37441  0.10153  0.25153  Biso   1.000  O
  O11      1.0000 0.62488  0.24568  0.39902  Biso   1.000  O
  O12      1.0000 0.61907  0.90130  0.74447  Biso   1.000  O
  O13      1.0000 0.11874  0.59708  0.74988  Biso   1.000  O
  O14      1.0000 0.37567  0.74656  0.89749  Biso   1.000  O
  O15      1.0000 0.87460  0.10085  0.25162  Biso   1.000  O
  O16      1.0000 0.62556  0.24906  0.10009  Biso   1.000  O
  O17      1.0000 0.37450  0.08398  0.59319  Biso   1.000  O
  O18      1.0000 0.87443  0.41564  0.59448  Biso   1.000  O
  O19      1.0000 0.12424  0.59381  0.41577  Biso   1.000  O
  O20      1.0000 0.12533  0.91147  0.09998  Biso   1.000  O
  O21      1.0000 0.37518  0.41125  0.90083  Biso   1.000  O
  O22      1.0000 0.87450  0.09931  0.91185  Biso   1.000  O
  O23      1.0000 0.62404  0.90300  0.41339  Biso   1.000  O
  O24      1.0000 0.62502  0.58393  0.09976  Biso   1.000  O
  O25      1.0000 0.87424  0.41776  0.90707  Biso   1.000  O
  O26      1.0000 0.37547  0.40456  0.58710  Biso   1.000  O
  O27      1.0000 0.37582  0.08381  0.90268  Biso   1.000  O
  O28      1.0000 0.62471  0.91119  0.09925  Biso   1.000  O
  O29      1.0000 0.87483  0.09804  0.58902  Biso   1.000  O
  O30      1.0000 0.12625  0.90670  0.41797  Biso   1.000  O
  O31      1.0000 0.12536  0.58649  0.09968  Biso   1.000  O
  O32      1.0000 0.62606  0.58337  0.40909  Biso   1.000  O
  Ir1      1.0000 0.62834  0.46090  0.25259  Biso   1.000  Ir
  Ir2      1.0000 0.12479  0.74931  0.94433  Biso   1.000  Ir
  Ir3      1.0000 0.87412  0.24008  0.44991  Biso   1.000  Ir
  Ir4      1.0000 0.37290  0.96188  0.75025  Biso   1.000  Ir
  Ir5      1.0000 0.87530  0.53746  0.74921  Biso   1.000  Ir
  Ir6      1.0000 0.37588  0.26062  0.45243  Biso   1.000  Ir
  Ir7      1.0000 0.12326  0.44928  0.24253  Biso   1.000  Ir
  Ir8      1.0000 0.62572  0.75211  0.94528  Biso   1.000  Ir
  Ir9      1.0000 0.62370  0.75810  0.54765  Biso   1.000  Ir
  Ir10     1.0000 0.12678  0.04980  0.24176  Biso   1.000  Ir
  Ir11     1.0000 0.37665  0.25409  0.05692  Biso   1.000  Ir
  Ir12     1.0000 0.87338  0.24018  0.04883  Biso   1.000  Ir
  Ir13     1.0000 0.37394  0.55053  0.75750  Biso   1.000  Ir
  Ir14     1.0000 0.62219  0.05060  0.24253  Biso   1.000  Ir
  Ir15     1.0000 0.87795  0.94355  0.74864  Biso   1.000  Ir
  Ir16     1.0000 0.12560  0.74878  0.53766  Biso   1.000  Ir
