data_image0
_cell_length_a       6.0298
_cell_length_b       6.0298
_cell_length_c       5.45041
_cell_angle_alpha    90
_cell_angle_beta     90
_cell_angle_gamma    120

_symmetry_space_group_name_H-M    "P 1"
_symmetry_int_tables_number       1

loop_
  _symmetry_equiv_pos_as_xyz
  'x, y, z'

loop_
  _atom_site_label
  _atom_site_occupancy
  _atom_site_fract_x
  _atom_site_fract_y
  _atom_site_fract_z
  _atom_site_thermal_displace_type
  _atom_site_B_iso_or_equiv
  _atom_site_type_symbol
  Ir1      1.0000 0.44171  0.00000  0.33333  Biso   1.000  Ir
  Ir2      1.0000 0.00000  0.44171  0.66667  Biso   1.000  Ir
  Ir3      1.0000 0.55829  0.55829  0.00000  Biso   1.000  Ir
  O1       1.0000 0.60800  0.91464  0.09063  Biso   1.000  O
  O2       1.0000 0.08536  0.69336  0.42396  Biso   1.000  O
  O3       1.0000 0.30664  0.39200  0.75730  Biso   1.000  O
  O4       1.0000 0.91464  0.60800  0.90937  Biso   1.000  O
  O5       1.0000 0.69336  0.08536  0.57603  Biso   1.000  O
  O6       1.0000 0.39200  0.30664  0.24270  Biso   1.000  O
