data_image0
_cell_length_a       7.42833
_cell_length_b       4.28855
_cell_length_c       76.7725
_cell_angle_alpha    90
_cell_angle_beta     90.602
_cell_angle_gamma    90

_symmetry_space_group_name_H-M    "P 1"
_symmetry_int_tables_number       1

loop_
  _symmetry_equiv_pos_as_xyz
  'x, y, z'

loop_
  _atom_site_label
  _atom_site_occupancy
  _atom_site_fract_x
  _atom_site_fract_y
  _atom_site_fract_z
  _atom_site_thermal_displace_type
  _atom_site_B_iso_or_equiv
  _atom_site_type_symbol
  Ir1      1.0000 0.33331  0.00000  0.02270  Biso   1.000  Ir
  Ir2      1.0000 0.00000  0.00000  0.11364  Biso   1.000  Ir
  Ir3      1.0000 0.00000  0.00000  0.20454  Biso   1.000  Ir
  Ir4      1.0000 0.00000  0.00000  0.29545  Biso   1.000  Ir
  Ir5      1.0000 0.00000  0.00000  0.38637  Biso   1.000  Ir
  Ir6      1.0000 0.00000  0.00000  0.47727  Biso   1.000  Ir
  Ir7      1.0000 0.00000  0.00000  0.56818  Biso   1.000  Ir
  Ir8      1.0000 0.00000  0.00000  0.65906  Biso   1.000  Ir
  Ir9      1.0000 0.33333  0.00000  0.74998  Biso   1.000  Ir
  Ir10     1.0000 0.00000  0.00000  0.84093  Biso   1.000  Ir
  Ir11     1.0000 0.00000  0.00000  0.93180  Biso   1.000  Ir
  Ir12     1.0000 0.83331  0.50000  0.02270  Biso   1.000  Ir
  Ir13     1.0000 0.50000  0.50000  0.11364  Biso   1.000  Ir
  Ir14     1.0000 0.50000  0.50000  0.20454  Biso   1.000  Ir
  Ir15     1.0000 0.50000  0.50000  0.29545  Biso   1.000  Ir
  Ir16     1.0000 0.50000  0.50000  0.38637  Biso   1.000  Ir
  Ir17     1.0000 0.50000  0.50000  0.47727  Biso   1.000  Ir
  Ir18     1.0000 0.50000  0.50000  0.56818  Biso   1.000  Ir
  Ir19     1.0000 0.50000  0.50000  0.65906  Biso   1.000  Ir
  Ir20     1.0000 0.83333  0.50000  0.74998  Biso   1.000  Ir
  Ir21     1.0000 0.50000  0.50000  0.84093  Biso   1.000  Ir
  Ir22     1.0000 0.50000  0.50000  0.93180  Biso   1.000  Ir
  O1       1.0000 0.00000  0.00000  0.00024  Biso   1.000  O
  O2       1.0000 0.16665  0.50000  0.04524  Biso   1.000  O
  O3       1.0000 0.33332  0.00000  0.09116  Biso   1.000  O
  O4       1.0000 0.16669  0.50000  0.13613  Biso   1.000  O
  O5       1.0000 0.33331  0.00000  0.18203  Biso   1.000  O
  O6       1.0000 0.16669  0.50000  0.22704  Biso   1.000  O
  O7       1.0000 0.33331  0.00000  0.27296  Biso   1.000  O
  O8       1.0000 0.16669  0.50000  0.31797  Biso   1.000  O
  O9       1.0000 0.33331  0.00000  0.36388  Biso   1.000  O
  O10      1.0000 0.16669  0.50000  0.40886  Biso   1.000  O
  O11      1.0000 0.33334  0.00000  0.45477  Biso   1.000  O
  O12      1.0000 0.16669  0.50000  0.49978  Biso   1.000  O
  O13      1.0000 0.33332  0.00000  0.54570  Biso   1.000  O
  O14      1.0000 0.16667  0.50000  0.59067  Biso   1.000  O
  O15      1.0000 0.33331  0.00000  0.63658  Biso   1.000  O
  O16      1.0000 0.16669  0.50000  0.68157  Biso   1.000  O
  O17      1.0000 0.00000  0.00000  0.72751  Biso   1.000  O
  O18      1.0000 0.16668  0.50000  0.77252  Biso   1.000  O
  O19      1.0000 0.33333  0.00000  0.81845  Biso   1.000  O
  O20      1.0000 0.16669  0.50000  0.86340  Biso   1.000  O
  O21      1.0000 0.33332  0.00000  0.90932  Biso   1.000  O
  O22      1.0000 0.16669  0.50000  0.95431  Biso   1.000  O
  O23      1.0000 0.50000  0.50000  0.00024  Biso   1.000  O
  O24      1.0000 0.66665  0.00000  0.04524  Biso   1.000  O
  O25      1.0000 0.83332  0.50000  0.09116  Biso   1.000  O
  O26      1.0000 0.66669  0.00000  0.13613  Biso   1.000  O
  O27      1.0000 0.83331  0.50000  0.18203  Biso   1.000  O
  O28      1.0000 0.66669  0.00000  0.22704  Biso   1.000  O
  O29      1.0000 0.83331  0.50000  0.27296  Biso   1.000  O
  O30      1.0000 0.66669  0.00000  0.31797  Biso   1.000  O
  O31      1.0000 0.83331  0.50000  0.36388  Biso   1.000  O
  O32      1.0000 0.66669  0.00000  0.40886  Biso   1.000  O
  O33      1.0000 0.83334  0.50000  0.45477  Biso   1.000  O
  O34      1.0000 0.66669  0.00000  0.49978  Biso   1.000  O
  O35      1.0000 0.83332  0.50000  0.54570  Biso   1.000  O
  O36      1.0000 0.66668  0.00000  0.59067  Biso   1.000  O
  O37      1.0000 0.83331  0.50000  0.63658  Biso   1.000  O
  O38      1.0000 0.66669  0.00000  0.68157  Biso   1.000  O
  O39      1.0000 0.50000  0.50000  0.72751  Biso   1.000  O
  O40      1.0000 0.66668  0.00000  0.77252  Biso   1.000  O
  O41      1.0000 0.83333  0.50000  0.81845  Biso   1.000  O
  O42      1.0000 0.66669  0.00000  0.86340  Biso   1.000  O
  O43      1.0000 0.83332  0.50000  0.90932  Biso   1.000  O
  O44      1.0000 0.66669  0.00000  0.95431  Biso   1.000  O
