data_image0
_cell_length_a       4.10871
_cell_length_b       4.293
_cell_length_c       5.51298
_cell_angle_alpha    69.3822
_cell_angle_beta     85.217
_cell_angle_gamma    64.0127

_symmetry_space_group_name_H-M    "P 1"
_symmetry_int_tables_number       1

loop_
  _symmetry_equiv_pos_as_xyz
  'x, y, z'

loop_
  _atom_site_label
  _atom_site_occupancy
  _atom_site_fract_x
  _atom_site_fract_y
  _atom_site_fract_z
  _atom_site_thermal_displace_type
  _atom_site_B_iso_or_equiv
  _atom_site_type_symbol
  Ir1      1.0000 0.10211  0.79587  0.27157  Biso   1.000  Ir
  Ir2      1.0000 0.89797  0.20399  0.72840  Biso   1.000  Ir
  O1       1.0000 0.42216  0.15646  0.14621  Biso   1.000  O
  O2       1.0000 0.78912  0.42093  0.36615  Biso   1.000  O
  O3       1.0000 0.21090  0.57903  0.63397  Biso   1.000  O
  O4       1.0000 0.57774  0.84372  0.85370  Biso   1.000  O
