data_image0
_cell_length_a       5.41984
_cell_length_b       5.41984
_cell_length_c       101.765
_cell_angle_alpha    90
_cell_angle_beta     90
_cell_angle_gamma    120

_symmetry_space_group_name_H-M    "P 1"
_symmetry_int_tables_number       1

loop_
  _symmetry_equiv_pos_as_xyz
  'x, y, z'

loop_
  _atom_site_label
  _atom_site_occupancy
  _atom_site_fract_x
  _atom_site_fract_y
  _atom_site_fract_z
  _atom_site_thermal_displace_type
  _atom_site_B_iso_or_equiv
  _atom_site_type_symbol
  Ir1      1.0000 0.33333  0.66667  0.40379  Biso   1.000  Ir
  Ir2      1.0000 0.33333  0.66667  0.63462  Biso   1.000  Ir
  Ir3      1.0000 0.33333  0.66667  0.78849  Biso   1.000  Ir
  Ir4      1.0000 0.00000  0.00000  0.48073  Biso   1.000  Ir
  Ir5      1.0000 0.33333  0.66667  0.55764  Biso   1.000  Ir
  Ir6      1.0000 0.00000  0.00000  0.17317  Biso   1.000  Ir
  Ir7      1.0000 0.33333  0.66667  0.94236  Biso   1.000  Ir
  Ir8      1.0000 0.00000  0.00000  0.32690  Biso   1.000  Ir
  Ir9      1.0000 0.66667  0.33333  0.86543  Biso   1.000  Ir
  Ir10     1.0000 0.33333  0.66667  0.71155  Biso   1.000  Ir
  Ir11     1.0000 0.33333  0.66667  0.09616  Biso   1.000  Ir
  Ir12     1.0000 0.00000  0.00000  0.01915  Biso   1.000  Ir
  Ir13     1.0000 0.33333  0.66667  0.24995  Biso   1.000  Ir
  O1       1.0000 0.00000  0.00000  0.69464  Biso   1.000  O
  O2       1.0000 0.66667  0.33333  0.80542  Biso   1.000  O
  O3       1.0000 0.00000  0.00000  0.23303  Biso   1.000  O
  O4       1.0000 0.66667  0.33333  0.65154  Biso   1.000  O
  O5       1.0000 0.33333  0.66667  0.15622  Biso   1.000  O
  O6       1.0000 0.33333  0.66667  0.46384  Biso   1.000  O
  O7       1.0000 0.66667  0.33333  0.34385  Biso   1.000  O
  O8       1.0000 0.66667  0.33333  0.03606  Biso   1.000  O
  O9       1.0000 0.66667  0.33333  0.95930  Biso   1.000  O
  O10      1.0000 0.00000  0.00000  0.92543  Biso   1.000  O
  O11      1.0000 0.00000  0.00000  0.38689  Biso   1.000  O
  O12      1.0000 0.66667  0.33333  0.42071  Biso   1.000  O
  O13      1.0000 0.00000  0.00000  0.84848  Biso   1.000  O
  O14      1.0000 0.66667  0.33333  0.26688  Biso   1.000  O
  O15      1.0000 0.66667  0.33333  0.57459  Biso   1.000  O
  O16      1.0000 0.00000  0.00000  0.54069  Biso   1.000  O
  O17      1.0000 0.66667  0.33333  0.11307  Biso   1.000  O
  O18      1.0000 0.66667  0.33333  0.19009  Biso   1.000  O
  O19      1.0000 0.66667  0.33333  0.72845  Biso   1.000  O
  O20      1.0000 0.33333  0.66667  0.88237  Biso   1.000  O
  O21      1.0000 0.33333  0.66667  0.30997  Biso   1.000  O
  O22      1.0000 0.00000  0.00000  0.61770  Biso   1.000  O
  O23      1.0000 0.33333  0.66667  0.00224  Biso   1.000  O
  O24      1.0000 0.00000  0.00000  0.07923  Biso   1.000  O
  O25      1.0000 0.66667  0.33333  0.49765  Biso   1.000  O
  O26      1.0000 0.00000  0.00000  0.77160  Biso   1.000  O
