data_image0
_cell_length_a       9.00152
_cell_length_b       9.00152
_cell_length_c       25.3214
_cell_angle_alpha    90
_cell_angle_beta     90
_cell_angle_gamma    90

_symmetry_space_group_name_H-M    "P 1"
_symmetry_int_tables_number       1

loop_
  _symmetry_equiv_pos_as_xyz
  'x, y, z'

loop_
  _atom_site_label
  _atom_site_occupancy
  _atom_site_fract_x
  _atom_site_fract_y
  _atom_site_fract_z
  _atom_site_thermal_displace_type
  _atom_site_B_iso_or_equiv
  _atom_site_type_symbol
  Ir1      1.0000 0.00000  0.74761  0.31269  Biso   1.000  Ir
  Ir2      1.0000 0.00000  0.25239  0.31269  Biso   1.000  Ir
  Ir3      1.0000 0.75239  0.00000  0.06269  Biso   1.000  Ir
  Ir4      1.0000 0.24761  0.00000  0.06269  Biso   1.000  Ir
  Ir5      1.0000 0.50000  0.74761  0.43731  Biso   1.000  Ir
  Ir6      1.0000 0.50000  0.25239  0.43731  Biso   1.000  Ir
  Ir7      1.0000 0.24761  0.50000  0.18731  Biso   1.000  Ir
  Ir8      1.0000 0.75239  0.50000  0.18731  Biso   1.000  Ir
  Ir9      1.0000 0.50000  0.24761  0.81269  Biso   1.000  Ir
  Ir10     1.0000 0.50000  0.75239  0.81269  Biso   1.000  Ir
  Ir11     1.0000 0.25239  0.50000  0.56269  Biso   1.000  Ir
  Ir12     1.0000 0.74761  0.50000  0.56269  Biso   1.000  Ir
  Ir13     1.0000 0.00000  0.24761  0.93731  Biso   1.000  Ir
  Ir14     1.0000 0.00000  0.75239  0.93731  Biso   1.000  Ir
  Ir15     1.0000 0.74761  0.00000  0.68731  Biso   1.000  Ir
  Ir16     1.0000 0.25239  0.00000  0.68731  Biso   1.000  Ir
  O1       1.0000 0.73717  0.73717  0.00000  Biso   1.000  O
  O2       1.0000 0.26283  0.26283  0.00000  Biso   1.000  O
  O3       1.0000 0.26283  0.23717  0.25000  Biso   1.000  O
  O4       1.0000 0.73717  0.76283  0.25000  Biso   1.000  O
  O5       1.0000 0.26283  0.76283  0.25000  Biso   1.000  O
  O6       1.0000 0.73717  0.23717  0.25000  Biso   1.000  O
  O7       1.0000 0.73717  0.26283  0.00000  Biso   1.000  O
  O8       1.0000 0.26283  0.73717  0.00000  Biso   1.000  O
  O9       1.0000 0.50000  0.50000  0.36781  Biso   1.000  O
  O10      1.0000 0.00000  0.50000  0.11781  Biso   1.000  O
  O11      1.0000 0.00000  0.50000  0.38219  Biso   1.000  O
  O12      1.0000 0.00000  0.00000  0.13219  Biso   1.000  O
  O13      1.0000 0.50000  0.50000  0.11801  Biso   1.000  O
  O14      1.0000 0.50000  0.00000  0.36801  Biso   1.000  O
  O15      1.0000 0.50000  0.00000  0.13199  Biso   1.000  O
  O16      1.0000 0.00000  0.00000  0.38199  Biso   1.000  O
  O17      1.0000 0.23717  0.23717  0.50000  Biso   1.000  O
  O18      1.0000 0.76283  0.76283  0.50000  Biso   1.000  O
  O19      1.0000 0.76283  0.73717  0.75000  Biso   1.000  O
  O20      1.0000 0.23717  0.26283  0.75000  Biso   1.000  O
  O21      1.0000 0.76283  0.26283  0.75000  Biso   1.000  O
  O22      1.0000 0.23717  0.73717  0.75000  Biso   1.000  O
  O23      1.0000 0.23717  0.76283  0.50000  Biso   1.000  O
  O24      1.0000 0.76283  0.23717  0.50000  Biso   1.000  O
  O25      1.0000 0.00000  0.00000  0.86781  Biso   1.000  O
  O26      1.0000 0.50000  0.00000  0.61781  Biso   1.000  O
  O27      1.0000 0.50000  0.00000  0.88219  Biso   1.000  O
  O28      1.0000 0.50000  0.50000  0.63219  Biso   1.000  O
  O29      1.0000 0.00000  0.00000  0.61801  Biso   1.000  O
  O30      1.0000 0.00000  0.50000  0.86801  Biso   1.000  O
  O31      1.0000 0.00000  0.50000  0.63199  Biso   1.000  O
  O32      1.0000 0.50000  0.50000  0.88199  Biso   1.000  O
