data_image0
_cell_length_a       20.8415
_cell_length_b       20.8416
_cell_length_c       10.9358
_cell_angle_alpha    90
_cell_angle_beta     90
_cell_angle_gamma    120

_symmetry_space_group_name_H-M    "P 1"
_symmetry_int_tables_number       1

loop_
  _symmetry_equiv_pos_as_xyz
  'x, y, z'

loop_
  _atom_site_label
  _atom_site_occupancy
  _atom_site_fract_x
  _atom_site_fract_y
  _atom_site_fract_z
  _atom_site_thermal_displace_type
  _atom_site_B_iso_or_equiv
  _atom_site_type_symbol
  O1       1.0000 0.79219  0.58439  0.00000  Biso   1.000  O
  O2       1.0000 0.41561  0.20781  0.00000  Biso   1.000  O
  O3       1.0000 0.79220  0.20781  0.00000  Biso   1.000  O
  O4       1.0000 0.20780  0.41561  0.50000  Biso   1.000  O
  O5       1.0000 0.58439  0.79219  0.50000  Biso   1.000  O
  O6       1.0000 0.20780  0.79219  0.50000  Biso   1.000  O
  O7       1.0000 0.20780  0.41561  0.00000  Biso   1.000  O
  O8       1.0000 0.58439  0.79219  0.00000  Biso   1.000  O
  O9       1.0000 0.20780  0.79219  0.00000  Biso   1.000  O
  O10      1.0000 0.79219  0.58439  0.50000  Biso   1.000  O
  O11      1.0000 0.41561  0.20781  0.50000  Biso   1.000  O
  O12      1.0000 0.79220  0.20781  0.50000  Biso   1.000  O
  O13      1.0000 0.36901  0.00000  0.04173  Biso   1.000  O
  O14      1.0000 0.00000  0.36901  0.04173  Biso   1.000  O
  O15      1.0000 0.63099  0.63099  0.04173  Biso   1.000  O
  O16      1.0000 0.63099  0.00000  0.54173  Biso   1.000  O
  O17      1.0000 0.00000  0.63099  0.54173  Biso   1.000  O
  O18      1.0000 0.36901  0.36901  0.54173  Biso   1.000  O
  O19      1.0000 0.00000  0.36901  0.45827  Biso   1.000  O
  O20      1.0000 0.36901  0.00000  0.45827  Biso   1.000  O
  O21      1.0000 0.63099  0.63099  0.45827  Biso   1.000  O
  O22      1.0000 0.00000  0.63099  0.95827  Biso   1.000  O
  O23      1.0000 0.63099  0.00000  0.95827  Biso   1.000  O
  O24      1.0000 0.36901  0.36901  0.95827  Biso   1.000  O
  O25      1.0000 0.84572  0.32434  0.25000  Biso   1.000  O
  O26      1.0000 0.67566  0.52137  0.25000  Biso   1.000  O
  O27      1.0000 0.47863  0.15428  0.25000  Biso   1.000  O
  O28      1.0000 0.15428  0.67566  0.75000  Biso   1.000  O
  O29      1.0000 0.32434  0.47863  0.75000  Biso   1.000  O
  O30      1.0000 0.52137  0.84572  0.75000  Biso   1.000  O
  O31      1.0000 0.32434  0.84572  0.25000  Biso   1.000  O
  O32      1.0000 0.52137  0.67566  0.25000  Biso   1.000  O
  O33      1.0000 0.15428  0.47863  0.25000  Biso   1.000  O
  O34      1.0000 0.67566  0.15428  0.75000  Biso   1.000  O
  O35      1.0000 0.47863  0.32434  0.75000  Biso   1.000  O
  O36      1.0000 0.84572  0.52137  0.75000  Biso   1.000  O
  O37      1.0000 0.41891  0.83781  0.00000  Biso   1.000  O
  O38      1.0000 0.16219  0.58109  0.00000  Biso   1.000  O
  O39      1.0000 0.41891  0.58109  0.00000  Biso   1.000  O
  O40      1.0000 0.58109  0.16219  0.50000  Biso   1.000  O
  O41      1.0000 0.83781  0.41891  0.50000  Biso   1.000  O
  O42      1.0000 0.58109  0.41891  0.50000  Biso   1.000  O
  O43      1.0000 0.58109  0.16219  0.00000  Biso   1.000  O
  O44      1.0000 0.83781  0.41891  0.00000  Biso   1.000  O
  O45      1.0000 0.58109  0.41891  0.00000  Biso   1.000  O
  O46      1.0000 0.41891  0.83781  0.50000  Biso   1.000  O
  O47      1.0000 0.16219  0.58109  0.50000  Biso   1.000  O
  O48      1.0000 0.41891  0.58109  0.50000  Biso   1.000  O
  Ir1      1.0000 0.33060  0.86944  0.07360  Biso   1.000  Ir
  Ir2      1.0000 0.13056  0.46116  0.07360  Biso   1.000  Ir
  Ir3      1.0000 0.53884  0.66940  0.07360  Biso   1.000  Ir
  Ir4      1.0000 0.66940  0.13056  0.57360  Biso   1.000  Ir
  Ir5      1.0000 0.86944  0.53884  0.57360  Biso   1.000  Ir
  Ir6      1.0000 0.46116  0.33060  0.57360  Biso   1.000  Ir
  Ir7      1.0000 0.86944  0.33060  0.42640  Biso   1.000  Ir
  Ir8      1.0000 0.46116  0.13056  0.42640  Biso   1.000  Ir
  Ir9      1.0000 0.66940  0.53884  0.42640  Biso   1.000  Ir
  Ir10     1.0000 0.13056  0.66940  0.92640  Biso   1.000  Ir
  Ir11     1.0000 0.53884  0.86944  0.92640  Biso   1.000  Ir
  Ir12     1.0000 0.33060  0.46116  0.92640  Biso   1.000  Ir
  Ir13     1.0000 0.66940  0.13056  0.92640  Biso   1.000  Ir
  Ir14     1.0000 0.86944  0.53884  0.92640  Biso   1.000  Ir
  Ir15     1.0000 0.46116  0.33060  0.92640  Biso   1.000  Ir
  Ir16     1.0000 0.33060  0.86944  0.42640  Biso   1.000  Ir
  Ir17     1.0000 0.13056  0.46116  0.42640  Biso   1.000  Ir
  Ir18     1.0000 0.53884  0.66940  0.42640  Biso   1.000  Ir
  Ir19     1.0000 0.13056  0.66940  0.57360  Biso   1.000  Ir
  Ir20     1.0000 0.53884  0.86944  0.57360  Biso   1.000  Ir
  Ir21     1.0000 0.33060  0.46116  0.57360  Biso   1.000  Ir
  Ir22     1.0000 0.86944  0.33060  0.07360  Biso   1.000  Ir
  Ir23     1.0000 0.46116  0.13056  0.07360  Biso   1.000  Ir
  Ir24     1.0000 0.66940  0.53884  0.07360  Biso   1.000  Ir
