data_image0
_cell_length_a       5.42986
_cell_length_b       5.42986
_cell_length_c       81.0374
_cell_angle_alpha    90
_cell_angle_beta     90
_cell_angle_gamma    120

_symmetry_space_group_name_H-M    "P 1"
_symmetry_int_tables_number       1

loop_
  _symmetry_equiv_pos_as_xyz
  'x, y, z'

loop_
  _atom_site_label
  _atom_site_occupancy
  _atom_site_fract_x
  _atom_site_fract_y
  _atom_site_fract_z
  _atom_site_thermal_displace_type
  _atom_site_B_iso_or_equiv
  _atom_site_type_symbol
  Ir1      1.0000 0.00000  0.00000  0.20454  Biso   1.000  Ir
  Ir2      1.0000 0.33333  0.66667  0.29545  Biso   1.000  Ir
  Ir3      1.0000 0.66667  0.33333  0.84093  Biso   1.000  Ir
  Ir4      1.0000 0.00000  0.00000  0.02273  Biso   1.000  Ir
  Ir5      1.0000 0.33333  0.66667  0.93181  Biso   1.000  Ir
  Ir6      1.0000 0.33333  0.66667  0.47727  Biso   1.000  Ir
  Ir7      1.0000 0.00000  0.00000  0.38638  Biso   1.000  Ir
  Ir8      1.0000 0.33333  0.66667  0.56818  Biso   1.000  Ir
  Ir9      1.0000 0.33333  0.66667  0.11363  Biso   1.000  Ir
  Ir10     1.0000 0.33333  0.66667  0.65907  Biso   1.000  Ir
  Ir11     1.0000 0.33333  0.66667  0.74999  Biso   1.000  Ir
  O1       1.0000 0.66667  0.33333  0.58954  Biso   1.000  O
  O2       1.0000 0.66667  0.33333  0.40776  Biso   1.000  O
  O3       1.0000 0.33333  0.66667  0.18317  Biso   1.000  O
  O4       1.0000 0.66667  0.33333  0.95315  Biso   1.000  O
  O5       1.0000 0.00000  0.00000  0.45590  Biso   1.000  O
  O6       1.0000 0.00000  0.00000  0.27409  Biso   1.000  O
  O7       1.0000 0.66667  0.33333  0.77135  Biso   1.000  O
  O8       1.0000 0.66667  0.33333  0.04410  Biso   1.000  O
  O9       1.0000 0.66667  0.33333  0.22590  Biso   1.000  O
  O10      1.0000 0.00000  0.00000  0.09226  Biso   1.000  O
  O11      1.0000 0.33333  0.66667  0.00140  Biso   1.000  O
  O12      1.0000 0.33333  0.66667  0.86229  Biso   1.000  O
  O13      1.0000 0.66667  0.33333  0.31683  Biso   1.000  O
  O14      1.0000 0.00000  0.00000  0.54683  Biso   1.000  O
  O15      1.0000 0.00000  0.00000  0.72863  Biso   1.000  O
  O16      1.0000 0.33333  0.66667  0.36502  Biso   1.000  O
  O17      1.0000 0.66667  0.33333  0.68044  Biso   1.000  O
  O18      1.0000 0.00000  0.00000  0.91046  Biso   1.000  O
  O19      1.0000 0.00000  0.00000  0.81956  Biso   1.000  O
  O20      1.0000 0.66667  0.33333  0.13500  Biso   1.000  O
  O21      1.0000 0.00000  0.00000  0.63769  Biso   1.000  O
  O22      1.0000 0.66667  0.33333  0.49864  Biso   1.000  O
