data_image0
_cell_length_a       10.6168
_cell_length_b       6.47974
_cell_length_c       10.6346
_cell_angle_alpha    90
_cell_angle_beta     98.6951
_cell_angle_gamma    90

_symmetry_space_group_name_H-M    "P 1"
_symmetry_int_tables_number       1

loop_
  _symmetry_equiv_pos_as_xyz
  'x, y, z'

loop_
  _atom_site_label
  _atom_site_occupancy
  _atom_site_fract_x
  _atom_site_fract_y
  _atom_site_fract_z
  _atom_site_thermal_displace_type
  _atom_site_B_iso_or_equiv
  _atom_site_type_symbol
  O1       1.0000 0.78865  0.07039  0.74629  Biso   1.000  O
  O2       1.0000 0.21135  0.07039  0.25371  Biso   1.000  O
  O3       1.0000 0.59898  0.11881  0.12477  Biso   1.000  O
  O4       1.0000 0.40102  0.11881  0.87523  Biso   1.000  O
  O5       1.0000 0.62123  0.76084  0.92133  Biso   1.000  O
  O6       1.0000 0.37877  0.76084  0.07867  Biso   1.000  O
  O7       1.0000 0.28865  0.57039  0.74629  Biso   1.000  O
  O8       1.0000 0.71135  0.57039  0.25371  Biso   1.000  O
  O9       1.0000 0.09898  0.61881  0.12477  Biso   1.000  O
  O10      1.0000 0.90102  0.61881  0.87523  Biso   1.000  O
  O11      1.0000 0.12123  0.26084  0.92133  Biso   1.000  O
  O12      1.0000 0.87877  0.26084  0.07867  Biso   1.000  O
  Ir1      1.0000 0.22984  0.83174  0.16502  Biso   1.000  Ir
  Ir2      1.0000 0.77016  0.83174  0.83498  Biso   1.000  Ir
  Ir3      1.0000 0.50000  0.93644  0.00000  Biso   1.000  Ir
  Ir4      1.0000 0.72984  0.33174  0.16502  Biso   1.000  Ir
  Ir5      1.0000 0.27016  0.33174  0.83498  Biso   1.000  Ir
  Ir6      1.0000 0.00000  0.43644  0.00000  Biso   1.000  Ir
