data_image0
_cell_length_a       17.1067
_cell_length_b       21.4097
_cell_length_c       6.27265
_cell_angle_alpha    90
_cell_angle_beta     90
_cell_angle_gamma    90

_symmetry_space_group_name_H-M    "P 1"
_symmetry_int_tables_number       1

loop_
  _symmetry_equiv_pos_as_xyz
  'x, y, z'

loop_
  _atom_site_label
  _atom_site_occupancy
  _atom_site_fract_x
  _atom_site_fract_y
  _atom_site_fract_z
  _atom_site_thermal_displace_type
  _atom_site_B_iso_or_equiv
  _atom_site_type_symbol
  O1       1.0000 0.90805  0.72102  0.29284  Biso   1.000  O
  O2       1.0000 0.09195  0.27898  0.79284  Biso   1.000  O
  O3       1.0000 0.90805  0.27898  0.79284  Biso   1.000  O
  O4       1.0000 0.09195  0.72102  0.29284  Biso   1.000  O
  O5       1.0000 0.74530  0.23699  0.00510  Biso   1.000  O
  O6       1.0000 0.25470  0.76301  0.50510  Biso   1.000  O
  O7       1.0000 0.74530  0.76301  0.50510  Biso   1.000  O
  O8       1.0000 0.25470  0.23699  0.00510  Biso   1.000  O
  O9       1.0000 0.09290  0.93136  0.79247  Biso   1.000  O
  O10      1.0000 0.90710  0.06864  0.29247  Biso   1.000  O
  O11      1.0000 0.09290  0.06864  0.29247  Biso   1.000  O
  O12      1.0000 0.90710  0.93136  0.79247  Biso   1.000  O
  O13      1.0000 0.00000  0.81105  0.61603  Biso   1.000  O
  O14      1.0000 0.00000  0.18895  0.11603  Biso   1.000  O
  O15      1.0000 0.26965  0.87741  0.83124  Biso   1.000  O
  O16      1.0000 0.73035  0.12259  0.33124  Biso   1.000  O
  O17      1.0000 0.26965  0.12259  0.33124  Biso   1.000  O
  O18      1.0000 0.73035  0.87741  0.83124  Biso   1.000  O
  O19      1.0000 0.00000  0.15733  0.61655  Biso   1.000  O
  O20      1.0000 0.00000  0.84267  0.11655  Biso   1.000  O
  O21      1.0000 0.76997  0.01502  0.99522  Biso   1.000  O
  O22      1.0000 0.23003  0.98498  0.49522  Biso   1.000  O
  O23      1.0000 0.76997  0.98498  0.49522  Biso   1.000  O
  O24      1.0000 0.23003  0.01502  0.99522  Biso   1.000  O
  O25      1.0000 0.40805  0.22102  0.29284  Biso   1.000  O
  O26      1.0000 0.59195  0.77898  0.79284  Biso   1.000  O
  O27      1.0000 0.40805  0.77898  0.79284  Biso   1.000  O
  O28      1.0000 0.59195  0.22102  0.29284  Biso   1.000  O
  O29      1.0000 0.24530  0.73699  0.00510  Biso   1.000  O
  O30      1.0000 0.75470  0.26301  0.50510  Biso   1.000  O
  O31      1.0000 0.24530  0.26301  0.50510  Biso   1.000  O
  O32      1.0000 0.75470  0.73699  0.00510  Biso   1.000  O
  O33      1.0000 0.59290  0.43136  0.79247  Biso   1.000  O
  O34      1.0000 0.40710  0.56864  0.29247  Biso   1.000  O
  O35      1.0000 0.59290  0.56864  0.29247  Biso   1.000  O
  O36      1.0000 0.40710  0.43136  0.79247  Biso   1.000  O
  O37      1.0000 0.50000  0.31105  0.61603  Biso   1.000  O
  O38      1.0000 0.50000  0.68895  0.11603  Biso   1.000  O
  O39      1.0000 0.76965  0.37741  0.83124  Biso   1.000  O
  O40      1.0000 0.23035  0.62259  0.33124  Biso   1.000  O
  O41      1.0000 0.76965  0.62259  0.33124  Biso   1.000  O
  O42      1.0000 0.23035  0.37741  0.83124  Biso   1.000  O
  O43      1.0000 0.50000  0.65733  0.61655  Biso   1.000  O
  O44      1.0000 0.50000  0.34267  0.11655  Biso   1.000  O
  O45      1.0000 0.26996  0.51502  0.99522  Biso   1.000  O
  O46      1.0000 0.73003  0.48498  0.49522  Biso   1.000  O
  O47      1.0000 0.26996  0.48498  0.49522  Biso   1.000  O
  O48      1.0000 0.73003  0.51502  0.99522  Biso   1.000  O
  Ir1      1.0000 0.20583  0.28898  0.78486  Biso   1.000  Ir
  Ir2      1.0000 0.79417  0.71102  0.28486  Biso   1.000  Ir
  Ir3      1.0000 0.20583  0.71102  0.28486  Biso   1.000  Ir
  Ir4      1.0000 0.79417  0.28898  0.78486  Biso   1.000  Ir
  Ir5      1.0000 0.00000  0.22534  0.82804  Biso   1.000  Ir
  Ir6      1.0000 0.00000  0.77466  0.32804  Biso   1.000  Ir
  Ir7      1.0000 0.79494  0.04834  0.27898  Biso   1.000  Ir
  Ir8      1.0000 0.20506  0.95166  0.77898  Biso   1.000  Ir
  Ir9      1.0000 0.79494  0.95166  0.77898  Biso   1.000  Ir
  Ir10     1.0000 0.20506  0.04834  0.27898  Biso   1.000  Ir
  Ir11     1.0000 0.00000  0.12124  0.32796  Biso   1.000  Ir
  Ir12     1.0000 0.00000  0.87876  0.82796  Biso   1.000  Ir
  Ir13     1.0000 0.70583  0.78898  0.78486  Biso   1.000  Ir
  Ir14     1.0000 0.29417  0.21102  0.28486  Biso   1.000  Ir
  Ir15     1.0000 0.70583  0.21102  0.28486  Biso   1.000  Ir
  Ir16     1.0000 0.29417  0.78898  0.78486  Biso   1.000  Ir
  Ir17     1.0000 0.50000  0.72534  0.82804  Biso   1.000  Ir
  Ir18     1.0000 0.50000  0.27466  0.32804  Biso   1.000  Ir
  Ir19     1.0000 0.29494  0.54834  0.27898  Biso   1.000  Ir
  Ir20     1.0000 0.70506  0.45166  0.77898  Biso   1.000  Ir
  Ir21     1.0000 0.29494  0.45166  0.77898  Biso   1.000  Ir
  Ir22     1.0000 0.70506  0.54834  0.27898  Biso   1.000  Ir
  Ir23     1.0000 0.50000  0.62124  0.32796  Biso   1.000  Ir
  Ir24     1.0000 0.50000  0.37876  0.82796  Biso   1.000  Ir
