data_image0
_cell_length_a       4.20428
_cell_length_b       6.79802
_cell_length_c       5.70816
_cell_angle_alpha    90
_cell_angle_beta     90
_cell_angle_gamma    90

_symmetry_space_group_name_H-M    "P 1"
_symmetry_int_tables_number       1

loop_
  _symmetry_equiv_pos_as_xyz
  'x, y, z'

loop_
  _atom_site_label
  _atom_site_occupancy
  _atom_site_fract_x
  _atom_site_fract_y
  _atom_site_fract_z
  _atom_site_thermal_displace_type
  _atom_site_B_iso_or_equiv
  _atom_site_type_symbol
  Ir1      1.0000 0.00000  0.75013  0.39421  Biso   1.000  Ir
  Ir2      1.0000 0.50000  0.24987  0.89421  Biso   1.000  Ir
  O1       1.0000 0.00000  0.40850  0.65004  Biso   1.000  O
  O2       1.0000 0.50000  0.59150  0.15004  Biso   1.000  O
  O3       1.0000 0.00000  0.09083  0.13775  Biso   1.000  O
  O4       1.0000 0.50000  0.90917  0.63775  Biso   1.000  O
