data_image0
_cell_length_a       4.73206
_cell_length_b       4.50297
_cell_length_c       5.50877
_cell_angle_alpha    90
_cell_angle_beta     115.308
_cell_angle_gamma    90

_symmetry_space_group_name_H-M    "P 1"
_symmetry_int_tables_number       1

loop_
  _symmetry_equiv_pos_as_xyz
  'x, y, z'

loop_
  _atom_site_label
  _atom_site_occupancy
  _atom_site_fract_x
  _atom_site_fract_y
  _atom_site_fract_z
  _atom_site_thermal_displace_type
  _atom_site_B_iso_or_equiv
  _atom_site_type_symbol
  O1       1.0000 0.07282  0.50000  0.03730  Biso   1.000  O
  O2       1.0000 0.70517  0.50000  0.35317  Biso   1.000  O
  O3       1.0000 0.07259  0.00000  0.53548  Biso   1.000  O
  O4       1.0000 0.70493  0.00000  0.85158  Biso   1.000  O
  Ir1      1.0000 0.38886  0.50000  0.69522  Biso   1.000  Ir
  Ir2      1.0000 0.38896  0.00000  0.19392  Biso   1.000  Ir
