data_image0
_cell_length_a       6.57698
_cell_length_b       7.3339
_cell_length_c       7.48174
_cell_angle_alpha    76.7662
_cell_angle_beta     64.4977
_cell_angle_gamma    68.6616

_symmetry_space_group_name_H-M    "P 1"
_symmetry_int_tables_number       1

loop_
  _symmetry_equiv_pos_as_xyz
  'x, y, z'

loop_
  _atom_site_label
  _atom_site_occupancy
  _atom_site_fract_x
  _atom_site_fract_y
  _atom_site_fract_z
  _atom_site_thermal_displace_type
  _atom_site_B_iso_or_equiv
  _atom_site_type_symbol
  O1       1.0000 0.20240  0.71667  0.86762  Biso   1.000  O
  O2       1.0000 0.79760  0.28333  0.13238  Biso   1.000  O
  O3       1.0000 0.98155  0.11284  0.62469  Biso   1.000  O
  O4       1.0000 0.01845  0.88716  0.37531  Biso   1.000  O
  O5       1.0000 0.51254  0.64921  0.25051  Biso   1.000  O
  O6       1.0000 0.48746  0.35079  0.74949  Biso   1.000  O
  O7       1.0000 0.59417  0.00310  0.21213  Biso   1.000  O
  O8       1.0000 0.40583  0.99690  0.78787  Biso   1.000  O
  Ir1      1.0000 0.33106  0.87294  0.49978  Biso   1.000  Ir
  Ir2      1.0000 0.66894  0.12706  0.50022  Biso   1.000  Ir
  Ir3      1.0000 0.50000  0.50000  0.00000  Biso   1.000  Ir
  Ir4      1.0000 0.00000  0.00000  0.00000  Biso   1.000  Ir
