data_image0
_cell_length_a       13.1619
_cell_length_b       13.1619
_cell_length_c       6.21622
_cell_angle_alpha    90
_cell_angle_beta     90
_cell_angle_gamma    90

_symmetry_space_group_name_H-M    "P 1"
_symmetry_int_tables_number       1

loop_
  _symmetry_equiv_pos_as_xyz
  'x, y, z'

loop_
  _atom_site_label
  _atom_site_occupancy
  _atom_site_fract_x
  _atom_site_fract_y
  _atom_site_fract_z
  _atom_site_thermal_displace_type
  _atom_site_B_iso_or_equiv
  _atom_site_type_symbol
  O1       1.0000 0.77862  0.00000  0.00000  Biso   1.000  O
  O2       1.0000 0.22138  0.00000  0.00000  Biso   1.000  O
  O3       1.0000 0.00000  0.77862  0.00000  Biso   1.000  O
  O4       1.0000 0.00000  0.22138  0.00000  Biso   1.000  O
  O5       1.0000 0.72138  0.50000  0.50000  Biso   1.000  O
  O6       1.0000 0.27862  0.50000  0.50000  Biso   1.000  O
  O7       1.0000 0.50000  0.72138  0.50000  Biso   1.000  O
  O8       1.0000 0.50000  0.27862  0.50000  Biso   1.000  O
  O9       1.0000 0.91071  0.62623  0.60794  Biso   1.000  O
  O10      1.0000 0.08929  0.37377  0.60794  Biso   1.000  O
  O11      1.0000 0.37377  0.91071  0.60794  Biso   1.000  O
  O12      1.0000 0.62623  0.08929  0.60794  Biso   1.000  O
  O13      1.0000 0.08929  0.62623  0.39206  Biso   1.000  O
  O14      1.0000 0.91071  0.37377  0.39206  Biso   1.000  O
  O15      1.0000 0.62623  0.91071  0.39206  Biso   1.000  O
  O16      1.0000 0.37377  0.08929  0.39206  Biso   1.000  O
  O17      1.0000 0.58929  0.87377  0.89206  Biso   1.000  O
  O18      1.0000 0.41071  0.12623  0.89206  Biso   1.000  O
  O19      1.0000 0.12623  0.58929  0.89206  Biso   1.000  O
  O20      1.0000 0.87377  0.41071  0.89206  Biso   1.000  O
  O21      1.0000 0.41071  0.87377  0.10794  Biso   1.000  O
  O22      1.0000 0.58929  0.12623  0.10794  Biso   1.000  O
  O23      1.0000 0.87377  0.58929  0.10794  Biso   1.000  O
  O24      1.0000 0.12623  0.41071  0.10794  Biso   1.000  O
  O25      1.0000 0.25000  0.25000  0.25000  Biso   1.000  O
  O26      1.0000 0.75000  0.75000  0.25000  Biso   1.000  O
  O27      1.0000 0.75000  0.25000  0.25000  Biso   1.000  O
  O28      1.0000 0.25000  0.75000  0.25000  Biso   1.000  O
  O29      1.0000 0.75000  0.25000  0.75000  Biso   1.000  O
  O30      1.0000 0.25000  0.75000  0.75000  Biso   1.000  O
  O31      1.0000 0.25000  0.25000  0.75000  Biso   1.000  O
  O32      1.0000 0.75000  0.75000  0.75000  Biso   1.000  O
  Ir1      1.0000 0.19304  0.61777  0.61892  Biso   1.000  Ir
  Ir2      1.0000 0.80696  0.38223  0.61892  Biso   1.000  Ir
  Ir3      1.0000 0.38223  0.19304  0.61892  Biso   1.000  Ir
  Ir4      1.0000 0.61777  0.80696  0.61892  Biso   1.000  Ir
  Ir5      1.0000 0.80696  0.61777  0.38108  Biso   1.000  Ir
  Ir6      1.0000 0.19304  0.38223  0.38108  Biso   1.000  Ir
  Ir7      1.0000 0.61777  0.19304  0.38108  Biso   1.000  Ir
  Ir8      1.0000 0.38223  0.80696  0.38108  Biso   1.000  Ir
  Ir9      1.0000 0.30696  0.88223  0.88108  Biso   1.000  Ir
  Ir10     1.0000 0.69304  0.11776  0.88108  Biso   1.000  Ir
  Ir11     1.0000 0.11776  0.30696  0.88108  Biso   1.000  Ir
  Ir12     1.0000 0.88223  0.69304  0.88108  Biso   1.000  Ir
  Ir13     1.0000 0.69304  0.88223  0.11892  Biso   1.000  Ir
  Ir14     1.0000 0.30696  0.11776  0.11892  Biso   1.000  Ir
  Ir15     1.0000 0.88223  0.30696  0.11892  Biso   1.000  Ir
  Ir16     1.0000 0.11776  0.69304  0.11892  Biso   1.000  Ir
