data_image0
_cell_length_a       5.43237
_cell_length_b       5.43237
_cell_length_c       66.0873
_cell_angle_alpha    90
_cell_angle_beta     90
_cell_angle_gamma    120

_symmetry_space_group_name_H-M    "P 1"
_symmetry_int_tables_number       1

loop_
  _symmetry_equiv_pos_as_xyz
  'x, y, z'

loop_
  _atom_site_label
  _atom_site_occupancy
  _atom_site_fract_x
  _atom_site_fract_y
  _atom_site_fract_z
  _atom_site_thermal_displace_type
  _atom_site_B_iso_or_equiv
  _atom_site_type_symbol
  Ir1      1.0000 0.00000  0.00000  0.80558  Biso   1.000  Ir
  Ir2      1.0000 0.00000  0.00000  0.91666  Biso   1.000  Ir
  Ir3      1.0000 0.00000  0.00000  0.58333  Biso   1.000  Ir
  Ir4      1.0000 0.33333  0.66667  0.69441  Biso   1.000  Ir
  Ir5      1.0000 0.66667  0.33333  0.02778  Biso   1.000  Ir
  Ir6      1.0000 0.00000  0.00000  0.13891  Biso   1.000  Ir
  Ir7      1.0000 0.00000  0.00000  0.36108  Biso   1.000  Ir
  Ir8      1.0000 0.66667  0.33333  0.47224  Biso   1.000  Ir
  Ir9      1.0000 0.66667  0.33333  0.24999  Biso   1.000  Ir
  O1       1.0000 0.00000  0.00000  0.22387  Biso   1.000  O
  O2       1.0000 0.66667  0.33333  0.33496  Biso   1.000  O
  O3       1.0000 0.66667  0.33333  0.55721  Biso   1.000  O
  O4       1.0000 0.00000  0.00000  0.72055  Biso   1.000  O
  O5       1.0000 0.00000  0.00000  0.44612  Biso   1.000  O
  O6       1.0000 0.33333  0.66667  0.27612  Biso   1.000  O
  O7       1.0000 0.33333  0.66667  0.05391  Biso   1.000  O
  O8       1.0000 0.33333  0.66667  0.60945  Biso   1.000  O
  O9       1.0000 0.66667  0.33333  0.89054  Biso   1.000  O
  O10      1.0000 0.33333  0.66667  0.94278  Biso   1.000  O
  O11      1.0000 0.66667  0.33333  0.11280  Biso   1.000  O
  O12      1.0000 0.00000  0.00000  0.00168  Biso   1.000  O
  O13      1.0000 0.33333  0.66667  0.16503  Biso   1.000  O
  O14      1.0000 0.66667  0.33333  0.77944  Biso   1.000  O
  O15      1.0000 0.33333  0.66667  0.38720  Biso   1.000  O
  O16      1.0000 0.33333  0.66667  0.83171  Biso   1.000  O
  O17      1.0000 0.66667  0.33333  0.66828  Biso   1.000  O
  O18      1.0000 0.33333  0.66667  0.49837  Biso   1.000  O
