data_image0
_cell_length_a       9.24612
_cell_length_b       5.79953
_cell_length_c       7.89818
_cell_angle_alpha    90
_cell_angle_beta     90
_cell_angle_gamma    90

_symmetry_space_group_name_H-M    "P 1"
_symmetry_int_tables_number       1

loop_
  _symmetry_equiv_pos_as_xyz
  'x, y, z'

loop_
  _atom_site_label
  _atom_site_occupancy
  _atom_site_fract_x
  _atom_site_fract_y
  _atom_site_fract_z
  _atom_site_thermal_displace_type
  _atom_site_B_iso_or_equiv
  _atom_site_type_symbol
  Ir1      1.0000 0.43417  0.25000  0.67036  Biso   1.000  Ir
  Ir2      1.0000 0.06583  0.75000  0.17036  Biso   1.000  Ir
  Ir3      1.0000 0.56583  0.75000  0.32964  Biso   1.000  Ir
  Ir4      1.0000 0.93417  0.25000  0.82964  Biso   1.000  Ir
  Ir5      1.0000 0.72825  0.25000  0.20258  Biso   1.000  Ir
  Ir6      1.0000 0.77175  0.75000  0.70258  Biso   1.000  Ir
  Ir7      1.0000 0.27175  0.75000  0.79742  Biso   1.000  Ir
  Ir8      1.0000 0.22825  0.25000  0.29742  Biso   1.000  Ir
  O1       1.0000 0.60357  0.25000  0.55048  Biso   1.000  O
  O2       1.0000 0.89643  0.75000  0.05048  Biso   1.000  O
  O3       1.0000 0.39643  0.75000  0.44952  Biso   1.000  O
  O4       1.0000 0.10357  0.25000  0.94952  Biso   1.000  O
  O5       1.0000 0.25031  0.25000  0.55621  Biso   1.000  O
  O6       1.0000 0.24969  0.75000  0.05621  Biso   1.000  O
  O7       1.0000 0.74969  0.75000  0.44379  Biso   1.000  O
  O8       1.0000 0.75031  0.25000  0.94379  Biso   1.000  O
  O9       1.0000 0.57451  0.00608  0.17679  Biso   1.000  O
  O10      1.0000 0.92548  0.99392  0.67679  Biso   1.000  O
  O11      1.0000 0.42548  0.50608  0.82321  Biso   1.000  O
  O12      1.0000 0.07451  0.49392  0.32321  Biso   1.000  O
  O13      1.0000 0.42548  0.99392  0.82321  Biso   1.000  O
  O14      1.0000 0.07451  0.00608  0.32321  Biso   1.000  O
  O15      1.0000 0.57451  0.49392  0.17679  Biso   1.000  O
  O16      1.0000 0.92548  0.50608  0.67679  Biso   1.000  O
