data_image0
_cell_length_a       6.40103
_cell_length_b       6.54253
_cell_length_c       6.58024
_cell_angle_alpha    92.0072
_cell_angle_beta     110.226
_cell_angle_gamma    114.745

_symmetry_space_group_name_H-M    "P 1"
_symmetry_int_tables_number       1

loop_
  _symmetry_equiv_pos_as_xyz
  'x, y, z'

loop_
  _atom_site_label
  _atom_site_occupancy
  _atom_site_fract_x
  _atom_site_fract_y
  _atom_site_fract_z
  _atom_site_thermal_displace_type
  _atom_site_B_iso_or_equiv
  _atom_site_type_symbol
  Ir1      1.0000 0.94151  0.18893  0.50851  Biso   1.000  Ir
  Ir2      1.0000 0.05849  0.81107  0.49149  Biso   1.000  Ir
  Ir3      1.0000 0.48686  0.78539  0.49762  Biso   1.000  Ir
  Ir4      1.0000 0.51314  0.21461  0.50238  Biso   1.000  Ir
  O1       1.0000 0.24774  0.36490  0.31170  Biso   1.000  O
  O2       1.0000 0.75226  0.63510  0.68830  Biso   1.000  O
  O3       1.0000 0.72560  0.84425  0.25112  Biso   1.000  O
  O4       1.0000 0.27440  0.15575  0.74888  Biso   1.000  O
  O5       1.0000 0.74603  0.11521  0.77750  Biso   1.000  O
  O6       1.0000 0.25397  0.88479  0.22250  Biso   1.000  O
  O7       1.0000 0.22371  0.60975  0.71504  Biso   1.000  O
  O8       1.0000 0.77629  0.39025  0.28496  Biso   1.000  O
