data_image0
_cell_length_a       5.28611
_cell_length_b       16.6863
_cell_length_c       8.4122
_cell_angle_alpha    90
_cell_angle_beta     90
_cell_angle_gamma    90

_symmetry_space_group_name_H-M    "P 1"
_symmetry_int_tables_number       1

loop_
  _symmetry_equiv_pos_as_xyz
  'x, y, z'

loop_
  _atom_site_label
  _atom_site_occupancy
  _atom_site_fract_x
  _atom_site_fract_y
  _atom_site_fract_z
  _atom_site_thermal_displace_type
  _atom_site_B_iso_or_equiv
  _atom_site_type_symbol
  O1       1.0000 0.81528  0.87722  0.90883  Biso   1.000  O
  O2       1.0000 0.18473  0.12278  0.40883  Biso   1.000  O
  O3       1.0000 0.18473  0.37722  0.59117  Biso   1.000  O
  O4       1.0000 0.81528  0.62278  0.09117  Biso   1.000  O
  O5       1.0000 0.18473  0.12278  0.09117  Biso   1.000  O
  O6       1.0000 0.81528  0.87722  0.59117  Biso   1.000  O
  O7       1.0000 0.81528  0.62278  0.40883  Biso   1.000  O
  O8       1.0000 0.18473  0.37722  0.90883  Biso   1.000  O
  O9       1.0000 0.70008  0.43331  0.25000  Biso   1.000  O
  O10      1.0000 0.29993  0.56668  0.75000  Biso   1.000  O
  O11      1.0000 0.29993  0.93331  0.25000  Biso   1.000  O
  O12      1.0000 0.70008  0.06669  0.75000  Biso   1.000  O
  O13      1.0000 0.67873  0.27315  0.25000  Biso   1.000  O
  O14      1.0000 0.32127  0.72685  0.75000  Biso   1.000  O
  O15      1.0000 0.32127  0.77315  0.25000  Biso   1.000  O
  O16      1.0000 0.67873  0.22685  0.75000  Biso   1.000  O
  Ir1      1.0000 0.45525  0.35666  0.25000  Biso   1.000  Ir
  Ir2      1.0000 0.54475  0.64333  0.75000  Biso   1.000  Ir
  Ir3      1.0000 0.54475  0.85666  0.25000  Biso   1.000  Ir
  Ir4      1.0000 0.45525  0.14333  0.75000  Biso   1.000  Ir
  Ir5      1.0000 0.95899  0.10215  0.25000  Biso   1.000  Ir
  Ir6      1.0000 0.04101  0.89785  0.75000  Biso   1.000  Ir
  Ir7      1.0000 0.04101  0.60215  0.25000  Biso   1.000  Ir
  Ir8      1.0000 0.95899  0.39785  0.75000  Biso   1.000  Ir
