data_image0
_cell_length_a       15.1848
_cell_length_b       15.1848
_cell_length_c       12.6882
_cell_angle_alpha    90
_cell_angle_beta     90
_cell_angle_gamma    90

_symmetry_space_group_name_H-M    "P 1"
_symmetry_int_tables_number       1

loop_
  _symmetry_equiv_pos_as_xyz
  'x, y, z'

loop_
  _atom_site_label
  _atom_site_occupancy
  _atom_site_fract_x
  _atom_site_fract_y
  _atom_site_fract_z
  _atom_site_thermal_displace_type
  _atom_site_B_iso_or_equiv
  _atom_site_type_symbol
  O1       1.0000 0.25000  0.25000  0.25000  Biso   1.000  O
  O2       1.0000 0.25000  0.25000  0.75000  Biso   1.000  O
  O3       1.0000 0.75000  0.25000  0.25000  Biso   1.000  O
  O4       1.0000 0.25000  0.75000  0.25000  Biso   1.000  O
  O5       1.0000 0.74185  0.24211  0.00000  Biso   1.000  O
  O6       1.0000 0.75815  0.25789  0.50000  Biso   1.000  O
  O7       1.0000 0.25789  0.24185  0.50000  Biso   1.000  O
  O8       1.0000 0.24211  0.25815  0.00000  Biso   1.000  O
  O9       1.0000 0.56765  0.22447  0.85721  Biso   1.000  O
  O10      1.0000 0.93235  0.27553  0.35721  Biso   1.000  O
  O11      1.0000 0.27553  0.06765  0.35721  Biso   1.000  O
  O12      1.0000 0.22447  0.43235  0.85721  Biso   1.000  O
  O13      1.0000 0.93235  0.27553  0.64279  Biso   1.000  O
  O14      1.0000 0.56765  0.22447  0.14279  Biso   1.000  O
  O15      1.0000 0.22447  0.43235  0.14279  Biso   1.000  O
  O16      1.0000 0.27553  0.06765  0.64279  Biso   1.000  O
  O17      1.0000 0.22429  0.56778  0.35735  Biso   1.000  O
  O18      1.0000 0.77571  0.43222  0.35735  Biso   1.000  O
  O19      1.0000 0.43222  0.22429  0.35735  Biso   1.000  O
  O20      1.0000 0.56778  0.77571  0.35735  Biso   1.000  O
  O21      1.0000 0.27571  0.93222  0.14265  Biso   1.000  O
  O22      1.0000 0.72429  0.06778  0.14265  Biso   1.000  O
  O23      1.0000 0.06778  0.27571  0.14265  Biso   1.000  O
  O24      1.0000 0.93222  0.72429  0.14265  Biso   1.000  O
  O25      1.0000 0.08530  0.58529  0.17196  Biso   1.000  O
  O26      1.0000 0.91470  0.41471  0.17196  Biso   1.000  O
  O27      1.0000 0.41471  0.08530  0.17196  Biso   1.000  O
  O28      1.0000 0.58529  0.91470  0.17196  Biso   1.000  O
  O29      1.0000 0.41470  0.91471  0.32804  Biso   1.000  O
  O30      1.0000 0.58530  0.08529  0.32804  Biso   1.000  O
  O31      1.0000 0.08529  0.41470  0.32804  Biso   1.000  O
  O32      1.0000 0.91471  0.58530  0.32804  Biso   1.000  O
  O33      1.0000 0.75000  0.75000  0.75000  Biso   1.000  O
  O34      1.0000 0.75000  0.75000  0.25000  Biso   1.000  O
  O35      1.0000 0.25000  0.75000  0.75000  Biso   1.000  O
  O36      1.0000 0.75000  0.25000  0.75000  Biso   1.000  O
  O37      1.0000 0.24185  0.74211  0.50000  Biso   1.000  O
  O38      1.0000 0.25815  0.75789  0.00000  Biso   1.000  O
  O39      1.0000 0.75789  0.74185  0.00000  Biso   1.000  O
  O40      1.0000 0.74211  0.75815  0.50000  Biso   1.000  O
  O41      1.0000 0.06765  0.72447  0.35721  Biso   1.000  O
  O42      1.0000 0.43235  0.77553  0.85721  Biso   1.000  O
  O43      1.0000 0.77553  0.56765  0.85721  Biso   1.000  O
  O44      1.0000 0.72447  0.93235  0.35721  Biso   1.000  O
  O45      1.0000 0.43235  0.77553  0.14279  Biso   1.000  O
  O46      1.0000 0.06765  0.72447  0.64279  Biso   1.000  O
  O47      1.0000 0.72447  0.93235  0.64279  Biso   1.000  O
  O48      1.0000 0.77553  0.56765  0.14279  Biso   1.000  O
  O49      1.0000 0.72429  0.06778  0.85735  Biso   1.000  O
  O50      1.0000 0.27571  0.93222  0.85735  Biso   1.000  O
  O51      1.0000 0.93222  0.72429  0.85735  Biso   1.000  O
  O52      1.0000 0.06778  0.27571  0.85735  Biso   1.000  O
  O53      1.0000 0.77571  0.43222  0.64265  Biso   1.000  O
  O54      1.0000 0.22429  0.56778  0.64265  Biso   1.000  O
  O55      1.0000 0.56778  0.77571  0.64265  Biso   1.000  O
  O56      1.0000 0.43222  0.22429  0.64265  Biso   1.000  O
  O57      1.0000 0.58530  0.08529  0.67196  Biso   1.000  O
  O58      1.0000 0.41470  0.91471  0.67196  Biso   1.000  O
  O59      1.0000 0.91471  0.58530  0.67196  Biso   1.000  O
  O60      1.0000 0.08529  0.41470  0.67196  Biso   1.000  O
  O61      1.0000 0.91470  0.41471  0.82804  Biso   1.000  O
  O62      1.0000 0.08530  0.58529  0.82804  Biso   1.000  O
  O63      1.0000 0.58529  0.91470  0.82804  Biso   1.000  O
  O64      1.0000 0.41471  0.08530  0.82804  Biso   1.000  O
  Ir1      1.0000 0.69532  0.19548  0.86798  Biso   1.000  Ir
  Ir2      1.0000 0.80468  0.30452  0.36798  Biso   1.000  Ir
  Ir3      1.0000 0.30452  0.19531  0.36798  Biso   1.000  Ir
  Ir4      1.0000 0.19548  0.30468  0.86798  Biso   1.000  Ir
  Ir5      1.0000 0.80468  0.30452  0.63202  Biso   1.000  Ir
  Ir6      1.0000 0.69532  0.19548  0.13202  Biso   1.000  Ir
  Ir7      1.0000 0.19548  0.30468  0.13202  Biso   1.000  Ir
  Ir8      1.0000 0.30452  0.19531  0.63202  Biso   1.000  Ir
  Ir9      1.0000 0.65968  0.00002  0.24995  Biso   1.000  Ir
  Ir10     1.0000 0.34032  0.99998  0.24995  Biso   1.000  Ir
  Ir11     1.0000 0.99998  0.65968  0.24995  Biso   1.000  Ir
  Ir12     1.0000 0.00002  0.34032  0.24995  Biso   1.000  Ir
  Ir13     1.0000 0.84032  0.49998  0.25005  Biso   1.000  Ir
  Ir14     1.0000 0.15968  0.50002  0.25005  Biso   1.000  Ir
  Ir15     1.0000 0.50002  0.84032  0.25005  Biso   1.000  Ir
  Ir16     1.0000 0.49998  0.15968  0.25005  Biso   1.000  Ir
  Ir17     1.0000 0.19531  0.69548  0.36798  Biso   1.000  Ir
  Ir18     1.0000 0.30468  0.80452  0.86798  Biso   1.000  Ir
  Ir19     1.0000 0.80452  0.69532  0.86798  Biso   1.000  Ir
  Ir20     1.0000 0.69548  0.80468  0.36798  Biso   1.000  Ir
  Ir21     1.0000 0.30468  0.80452  0.13202  Biso   1.000  Ir
  Ir22     1.0000 0.19531  0.69548  0.63202  Biso   1.000  Ir
  Ir23     1.0000 0.69548  0.80468  0.63202  Biso   1.000  Ir
  Ir24     1.0000 0.80452  0.69532  0.13202  Biso   1.000  Ir
  Ir25     1.0000 0.15968  0.50002  0.74995  Biso   1.000  Ir
  Ir26     1.0000 0.84032  0.49998  0.74995  Biso   1.000  Ir
  Ir27     1.0000 0.49998  0.15968  0.74995  Biso   1.000  Ir
  Ir28     1.0000 0.50002  0.84032  0.74995  Biso   1.000  Ir
  Ir29     1.0000 0.34032  0.99998  0.75005  Biso   1.000  Ir
  Ir30     1.0000 0.65968  0.00002  0.75005  Biso   1.000  Ir
  Ir31     1.0000 0.00002  0.34032  0.75005  Biso   1.000  Ir
  Ir32     1.0000 0.99998  0.65968  0.75005  Biso   1.000  Ir
