data_image0
_cell_length_a       18.1129
_cell_length_b       3.46452
_cell_length_c       13.9315
_cell_angle_alpha    90
_cell_angle_beta     90
_cell_angle_gamma    90

_symmetry_space_group_name_H-M    "P 1"
_symmetry_int_tables_number       1

loop_
  _symmetry_equiv_pos_as_xyz
  'x, y, z'

loop_
  _atom_site_label
  _atom_site_occupancy
  _atom_site_fract_x
  _atom_site_fract_y
  _atom_site_fract_z
  _atom_site_thermal_displace_type
  _atom_site_B_iso_or_equiv
  _atom_site_type_symbol
  O1       1.0000 0.06220  0.00000  0.34348  Biso   1.000  O
  O2       1.0000 0.43780  0.00000  0.34348  Biso   1.000  O
  O3       1.0000 0.93780  0.00000  0.65651  Biso   1.000  O
  O4       1.0000 0.56220  0.00000  0.65651  Biso   1.000  O
  O5       1.0000 0.12069  0.00000  0.56978  Biso   1.000  O
  O6       1.0000 0.37931  0.00000  0.56978  Biso   1.000  O
  O7       1.0000 0.87930  0.00000  0.43022  Biso   1.000  O
  O8       1.0000 0.62069  0.00000  0.43022  Biso   1.000  O
  O9       1.0000 0.00107  0.50000  0.16188  Biso   1.000  O
  O10      1.0000 0.49893  0.50000  0.16188  Biso   1.000  O
  O11      1.0000 0.99893  0.50000  0.83812  Biso   1.000  O
  O12      1.0000 0.50107  0.50000  0.83812  Biso   1.000  O
  O13      1.0000 0.14163  0.50000  0.00336  Biso   1.000  O
  O14      1.0000 0.35837  0.50000  0.00336  Biso   1.000  O
  O15      1.0000 0.85837  0.50000  0.99664  Biso   1.000  O
  O16      1.0000 0.64163  0.50000  0.99664  Biso   1.000  O
  O17      1.0000 0.16535  0.50000  0.24000  Biso   1.000  O
  O18      1.0000 0.33465  0.50000  0.24000  Biso   1.000  O
  O19      1.0000 0.83465  0.50000  0.76000  Biso   1.000  O
  O20      1.0000 0.66535  0.50000  0.76000  Biso   1.000  O
  O21      1.0000 0.66235  0.50000  0.23851  Biso   1.000  O
  O22      1.0000 0.83764  0.50000  0.23851  Biso   1.000  O
  O23      1.0000 0.33764  0.50000  0.76148  Biso   1.000  O
  O24      1.0000 0.16235  0.50000  0.76148  Biso   1.000  O
  O25      1.0000 0.25000  0.00000  0.11650  Biso   1.000  O
  O26      1.0000 0.75000  0.00000  0.88350  Biso   1.000  O
  O27      1.0000 0.25000  0.00000  0.38600  Biso   1.000  O
  O28      1.0000 0.75000  0.00000  0.61399  Biso   1.000  O
  O29      1.0000 0.25000  0.00000  0.88853  Biso   1.000  O
  O30      1.0000 0.75000  0.00000  0.11147  Biso   1.000  O
  O31      1.0000 0.25000  0.50000  0.56094  Biso   1.000  O
  O32      1.0000 0.75000  0.50000  0.43906  Biso   1.000  O
  O33      1.0000 0.00000  0.50000  0.50000  Biso   1.000  O
  O34      1.0000 0.50000  0.50000  0.50000  Biso   1.000  O
  O35      1.0000 0.00000  0.00000  0.00000  Biso   1.000  O
  O36      1.0000 0.50000  0.00000  0.00000  Biso   1.000  O
  Ir1      1.0000 0.10376  0.00000  0.13651  Biso   1.000  Ir
  Ir2      1.0000 0.39624  0.00000  0.13651  Biso   1.000  Ir
  Ir3      1.0000 0.89624  0.00000  0.86348  Biso   1.000  Ir
  Ir4      1.0000 0.60376  0.00000  0.86348  Biso   1.000  Ir
  Ir5      1.0000 0.60422  0.00000  0.12794  Biso   1.000  Ir
  Ir6      1.0000 0.89578  0.00000  0.12794  Biso   1.000  Ir
  Ir7      1.0000 0.39578  0.00000  0.87206  Biso   1.000  Ir
  Ir8      1.0000 0.10422  0.00000  0.87206  Biso   1.000  Ir
  Ir9      1.0000 0.14394  0.50000  0.43153  Biso   1.000  Ir
  Ir10     1.0000 0.35606  0.50000  0.43153  Biso   1.000  Ir
  Ir11     1.0000 0.85606  0.50000  0.56847  Biso   1.000  Ir
  Ir12     1.0000 0.64394  0.50000  0.56847  Biso   1.000  Ir
  Ir13     1.0000 0.54527  0.50000  0.32951  Biso   1.000  Ir
  Ir14     1.0000 0.95473  0.50000  0.32951  Biso   1.000  Ir
  Ir15     1.0000 0.45473  0.50000  0.67049  Biso   1.000  Ir
  Ir16     1.0000 0.04527  0.50000  0.67049  Biso   1.000  Ir
  Ir17     1.0000 0.25000  0.00000  0.69030  Biso   1.000  Ir
  Ir18     1.0000 0.75000  0.00000  0.30970  Biso   1.000  Ir
