data_image0
_cell_length_a       12.4906
_cell_length_b       5.17614
_cell_length_c       5.22571
_cell_angle_alpha    90
_cell_angle_beta     93.4616
_cell_angle_gamma    90

_symmetry_space_group_name_H-M    "P 1"
_symmetry_int_tables_number       1

loop_
  _symmetry_equiv_pos_as_xyz
  'x, y, z'

loop_
  _atom_site_label
  _atom_site_occupancy
  _atom_site_fract_x
  _atom_site_fract_y
  _atom_site_fract_z
  _atom_site_thermal_displace_type
  _atom_site_B_iso_or_equiv
  _atom_site_type_symbol
  Ir1      1.0000 0.25000  0.75000  0.50000  Biso   1.000  Ir
  Ir2      1.0000 0.25000  0.25000  0.00000  Biso   1.000  Ir
  Ir3      1.0000 0.00000  0.74153  0.75000  Biso   1.000  Ir
  Ir4      1.0000 0.00000  0.25846  0.25000  Biso   1.000  Ir
  Ir5      1.0000 0.75000  0.25000  0.50000  Biso   1.000  Ir
  Ir6      1.0000 0.75000  0.75000  0.00000  Biso   1.000  Ir
  Ir7      1.0000 0.50000  0.24153  0.75000  Biso   1.000  Ir
  Ir8      1.0000 0.50000  0.75846  0.25000  Biso   1.000  Ir
  O1       1.0000 0.40674  0.08411  0.02079  Biso   1.000  O
  O2       1.0000 0.09326  0.58411  0.47921  Biso   1.000  O
  O3       1.0000 0.09326  0.41589  0.97921  Biso   1.000  O
  O4       1.0000 0.40674  0.91589  0.52079  Biso   1.000  O
  O5       1.0000 0.32679  0.43462  0.35662  Biso   1.000  O
  O6       1.0000 0.17321  0.93462  0.14338  Biso   1.000  O
  O7       1.0000 0.17321  0.06538  0.64338  Biso   1.000  O
  O8       1.0000 0.32679  0.56538  0.85662  Biso   1.000  O
  O9       1.0000 0.90674  0.58411  0.02079  Biso   1.000  O
  O10      1.0000 0.59326  0.08411  0.47921  Biso   1.000  O
  O11      1.0000 0.59326  0.91589  0.97921  Biso   1.000  O
  O12      1.0000 0.90674  0.41589  0.52079  Biso   1.000  O
  O13      1.0000 0.82679  0.93462  0.35662  Biso   1.000  O
  O14      1.0000 0.67321  0.43462  0.14338  Biso   1.000  O
  O15      1.0000 0.67321  0.56538  0.64338  Biso   1.000  O
  O16      1.0000 0.82679  0.06538  0.85662  Biso   1.000  O
