data_image0
_cell_length_a       5.06401
_cell_length_b       5.17888
_cell_length_c       7.99717
_cell_angle_alpha    103.13
_cell_angle_beta     102.961
_cell_angle_gamma    98.3377

_symmetry_space_group_name_H-M    "P 1"
_symmetry_int_tables_number       1

loop_
  _symmetry_equiv_pos_as_xyz
  'x, y, z'

loop_
  _atom_site_label
  _atom_site_occupancy
  _atom_site_fract_x
  _atom_site_fract_y
  _atom_site_fract_z
  _atom_site_thermal_displace_type
  _atom_site_B_iso_or_equiv
  _atom_site_type_symbol
  O1       1.0000 0.77434  0.86544  0.18408  Biso   1.000  O
  O2       1.0000 0.24398  0.33458  0.21746  Biso   1.000  O
  O3       1.0000 0.10572  0.37803  0.90257  Biso   1.000  O
  O4       1.0000 0.44001  0.53667  0.52822  Biso   1.000  O
  O5       1.0000 0.89809  0.00488  0.55394  Biso   1.000  O
  O6       1.0000 0.51284  0.77092  0.84121  Biso   1.000  O
  Ir1      1.0000 0.74162  0.56196  0.34255  Biso   1.000  Ir
  Ir2      1.0000 0.39378  0.22152  0.68427  Biso   1.000  Ir
  Ir3      1.0000 0.01462  0.95098  0.99570  Biso   1.000  Ir
