data_image0
_cell_length_a       8.63028
_cell_length_b       8.63028
_cell_length_c       10.9932
_cell_angle_alpha    90
_cell_angle_beta     90
_cell_angle_gamma    90

_symmetry_space_group_name_H-M    "P 1"
_symmetry_int_tables_number       1

loop_
  _symmetry_equiv_pos_as_xyz
  'x, y, z'

loop_
  _atom_site_label
  _atom_site_occupancy
  _atom_site_fract_x
  _atom_site_fract_y
  _atom_site_fract_z
  _atom_site_thermal_displace_type
  _atom_site_B_iso_or_equiv
  _atom_site_type_symbol
  O1       1.0000 0.18693  0.18693  0.25000  Biso   1.000  O
  O2       1.0000 0.81307  0.81307  0.25000  Biso   1.000  O
  O3       1.0000 0.81307  0.18693  0.75000  Biso   1.000  O
  O4       1.0000 0.18693  0.81307  0.75000  Biso   1.000  O
  O5       1.0000 0.81307  0.81307  0.75000  Biso   1.000  O
  O6       1.0000 0.18693  0.18693  0.75000  Biso   1.000  O
  O7       1.0000 0.18693  0.81307  0.25000  Biso   1.000  O
  O8       1.0000 0.81307  0.18693  0.25000  Biso   1.000  O
  O9       1.0000 0.22587  0.00000  0.00000  Biso   1.000  O
  O10      1.0000 0.77413  0.00000  0.00000  Biso   1.000  O
  O11      1.0000 0.00000  0.22587  0.50000  Biso   1.000  O
  O12      1.0000 0.00000  0.77413  0.50000  Biso   1.000  O
  O13      1.0000 0.00000  0.50000  0.69833  Biso   1.000  O
  O14      1.0000 0.50000  0.00000  0.19833  Biso   1.000  O
  O15      1.0000 0.00000  0.50000  0.30167  Biso   1.000  O
  O16      1.0000 0.50000  0.00000  0.80167  Biso   1.000  O
  Ir1      1.0000 0.00000  0.72466  0.67426  Biso   1.000  Ir
  Ir2      1.0000 0.00000  0.27534  0.67426  Biso   1.000  Ir
  Ir3      1.0000 0.27534  0.00000  0.17426  Biso   1.000  Ir
  Ir4      1.0000 0.72466  0.00000  0.17426  Biso   1.000  Ir
  Ir5      1.0000 0.00000  0.72466  0.32574  Biso   1.000  Ir
  Ir6      1.0000 0.00000  0.27534  0.32574  Biso   1.000  Ir
  Ir7      1.0000 0.72466  0.00000  0.82574  Biso   1.000  Ir
  Ir8      1.0000 0.27534  0.00000  0.82574  Biso   1.000  Ir
