data_image0
_cell_length_a       4.64205
_cell_length_b       5.59354
_cell_length_c       5.12019
_cell_angle_alpha    90
_cell_angle_beta     90
_cell_angle_gamma    90

_symmetry_space_group_name_H-M    "P 1"
_symmetry_int_tables_number       1

loop_
  _symmetry_equiv_pos_as_xyz
  'x, y, z'

loop_
  _atom_site_label
  _atom_site_occupancy
  _atom_site_fract_x
  _atom_site_fract_y
  _atom_site_fract_z
  _atom_site_thermal_displace_type
  _atom_site_B_iso_or_equiv
  _atom_site_type_symbol
  O1       1.0000 0.26173  0.89790  0.92346  Biso   1.000  O
  O2       1.0000 0.23827  0.60210  0.42346  Biso   1.000  O
  O3       1.0000 0.73827  0.89790  0.57654  Biso   1.000  O
  O4       1.0000 0.76173  0.60210  0.07654  Biso   1.000  O
  O5       1.0000 0.73827  0.10210  0.07654  Biso   1.000  O
  O6       1.0000 0.76173  0.39790  0.57654  Biso   1.000  O
  O7       1.0000 0.26173  0.10210  0.42346  Biso   1.000  O
  O8       1.0000 0.23827  0.39790  0.92346  Biso   1.000  O
  Ir1      1.0000 0.00000  0.33157  0.25000  Biso   1.000  Ir
  Ir2      1.0000 0.50000  0.16843  0.75000  Biso   1.000  Ir
  Ir3      1.0000 0.00000  0.66843  0.75000  Biso   1.000  Ir
  Ir4      1.0000 0.50000  0.83157  0.25000  Biso   1.000  Ir
