data_image0
_cell_length_a       10.6169
_cell_length_b       24.4482
_cell_length_c       12.383
_cell_angle_alpha    90
_cell_angle_beta     90
_cell_angle_gamma    90

_symmetry_space_group_name_H-M    "P 1"
_symmetry_int_tables_number       1

loop_
  _symmetry_equiv_pos_as_xyz
  'x, y, z'

loop_
  _atom_site_label
  _atom_site_occupancy
  _atom_site_fract_x
  _atom_site_fract_y
  _atom_site_fract_z
  _atom_site_thermal_displace_type
  _atom_site_B_iso_or_equiv
  _atom_site_type_symbol
  O1       1.0000 0.78513  0.00000  0.00000  Biso   1.000  O
  O2       1.0000 0.71487  0.00000  0.50000  Biso   1.000  O
  O3       1.0000 0.21487  0.00000  0.00000  Biso   1.000  O
  O4       1.0000 0.28513  0.00000  0.50000  Biso   1.000  O
  O5       1.0000 0.50000  0.56764  0.12614  Biso   1.000  O
  O6       1.0000 0.50000  0.93236  0.62614  Biso   1.000  O
  O7       1.0000 0.00000  0.56764  0.37386  Biso   1.000  O
  O8       1.0000 0.00000  0.93236  0.87386  Biso   1.000  O
  O9       1.0000 0.25000  0.52932  0.25000  Biso   1.000  O
  O10      1.0000 0.75000  0.97068  0.75000  Biso   1.000  O
  O11      1.0000 0.25000  0.97068  0.75000  Biso   1.000  O
  O12      1.0000 0.75000  0.52932  0.25000  Biso   1.000  O
  O13      1.0000 0.23627  0.62390  0.06870  Biso   1.000  O
  O14      1.0000 0.76373  0.87610  0.56870  Biso   1.000  O
  O15      1.0000 0.26373  0.62390  0.43130  Biso   1.000  O
  O16      1.0000 0.73627  0.87610  0.93130  Biso   1.000  O
  O17      1.0000 0.26373  0.87610  0.93130  Biso   1.000  O
  O18      1.0000 0.73627  0.62390  0.43130  Biso   1.000  O
  O19      1.0000 0.23627  0.87610  0.56870  Biso   1.000  O
  O20      1.0000 0.76373  0.62390  0.06870  Biso   1.000  O
  O21      1.0000 0.00000  0.70286  0.10911  Biso   1.000  O
  O22      1.0000 0.00000  0.79714  0.60911  Biso   1.000  O
  O23      1.0000 0.50000  0.70286  0.39089  Biso   1.000  O
  O24      1.0000 0.50000  0.79714  0.89089  Biso   1.000  O
  O25      1.0000 0.25000  0.71868  0.25000  Biso   1.000  O
  O26      1.0000 0.75000  0.78132  0.75000  Biso   1.000  O
  O27      1.0000 0.25000  0.78132  0.75000  Biso   1.000  O
  O28      1.0000 0.75000  0.71868  0.25000  Biso   1.000  O
  O29      1.0000 0.75000  0.75000  0.00000  Biso   1.000  O
  O30      1.0000 0.25000  0.75000  0.50000  Biso   1.000  O
  O31      1.0000 0.75000  0.75000  0.50000  Biso   1.000  O
  O32      1.0000 0.25000  0.75000  0.00000  Biso   1.000  O
  O33      1.0000 0.28513  0.50000  0.00000  Biso   1.000  O
  O34      1.0000 0.21487  0.50000  0.50000  Biso   1.000  O
  O35      1.0000 0.71487  0.50000  0.00000  Biso   1.000  O
  O36      1.0000 0.78513  0.50000  0.50000  Biso   1.000  O
  O37      1.0000 0.00000  0.06764  0.12614  Biso   1.000  O
  O38      1.0000 0.00000  0.43236  0.62614  Biso   1.000  O
  O39      1.0000 0.50000  0.06764  0.37386  Biso   1.000  O
  O40      1.0000 0.50000  0.43236  0.87386  Biso   1.000  O
  O41      1.0000 0.75000  0.02932  0.25000  Biso   1.000  O
  O42      1.0000 0.25000  0.47068  0.75000  Biso   1.000  O
  O43      1.0000 0.75000  0.47068  0.75000  Biso   1.000  O
  O44      1.0000 0.25000  0.02932  0.25000  Biso   1.000  O
  O45      1.0000 0.73627  0.12390  0.06870  Biso   1.000  O
  O46      1.0000 0.26373  0.37610  0.56870  Biso   1.000  O
  O47      1.0000 0.76373  0.12390  0.43130  Biso   1.000  O
  O48      1.0000 0.23627  0.37610  0.93130  Biso   1.000  O
  O49      1.0000 0.76373  0.37610  0.93130  Biso   1.000  O
  O50      1.0000 0.23627  0.12390  0.43130  Biso   1.000  O
  O51      1.0000 0.73627  0.37610  0.56870  Biso   1.000  O
  O52      1.0000 0.26373  0.12390  0.06870  Biso   1.000  O
  O53      1.0000 0.50000  0.20286  0.10911  Biso   1.000  O
  O54      1.0000 0.50000  0.29714  0.60911  Biso   1.000  O
  O55      1.0000 0.00000  0.20286  0.39089  Biso   1.000  O
  O56      1.0000 0.00000  0.29714  0.89089  Biso   1.000  O
  O57      1.0000 0.75000  0.21868  0.25000  Biso   1.000  O
  O58      1.0000 0.25000  0.28132  0.75000  Biso   1.000  O
  O59      1.0000 0.75000  0.28132  0.75000  Biso   1.000  O
  O60      1.0000 0.25000  0.21868  0.25000  Biso   1.000  O
  O61      1.0000 0.25000  0.25000  0.00000  Biso   1.000  O
  O62      1.0000 0.75000  0.25000  0.50000  Biso   1.000  O
  O63      1.0000 0.25000  0.25000  0.50000  Biso   1.000  O
  O64      1.0000 0.75000  0.25000  0.00000  Biso   1.000  O
  Ir1      1.0000 0.31816  0.55513  0.11098  Biso   1.000  Ir
  Ir2      1.0000 0.68184  0.94487  0.61098  Biso   1.000  Ir
  Ir3      1.0000 0.18184  0.55513  0.38902  Biso   1.000  Ir
  Ir4      1.0000 0.81816  0.94487  0.88902  Biso   1.000  Ir
  Ir5      1.0000 0.18184  0.94487  0.88902  Biso   1.000  Ir
  Ir6      1.0000 0.81816  0.55513  0.38902  Biso   1.000  Ir
  Ir7      1.0000 0.31816  0.94487  0.61098  Biso   1.000  Ir
  Ir8      1.0000 0.68184  0.55513  0.11098  Biso   1.000  Ir
  Ir9      1.0000 0.18390  0.69885  0.10688  Biso   1.000  Ir
  Ir10     1.0000 0.81610  0.80115  0.60688  Biso   1.000  Ir
  Ir11     1.0000 0.31610  0.69885  0.39312  Biso   1.000  Ir
  Ir12     1.0000 0.68390  0.80115  0.89312  Biso   1.000  Ir
  Ir13     1.0000 0.31610  0.80115  0.89312  Biso   1.000  Ir
  Ir14     1.0000 0.68390  0.69885  0.39312  Biso   1.000  Ir
  Ir15     1.0000 0.18390  0.80115  0.60688  Biso   1.000  Ir
  Ir16     1.0000 0.81610  0.69885  0.10688  Biso   1.000  Ir
  Ir17     1.0000 0.81816  0.05513  0.11098  Biso   1.000  Ir
  Ir18     1.0000 0.18184  0.44487  0.61098  Biso   1.000  Ir
  Ir19     1.0000 0.68184  0.05513  0.38902  Biso   1.000  Ir
  Ir20     1.0000 0.31816  0.44487  0.88902  Biso   1.000  Ir
  Ir21     1.0000 0.68184  0.44487  0.88902  Biso   1.000  Ir
  Ir22     1.0000 0.31816  0.05513  0.38902  Biso   1.000  Ir
  Ir23     1.0000 0.81816  0.44487  0.61098  Biso   1.000  Ir
  Ir24     1.0000 0.18184  0.05513  0.11098  Biso   1.000  Ir
  Ir25     1.0000 0.68390  0.19885  0.10688  Biso   1.000  Ir
  Ir26     1.0000 0.31610  0.30115  0.60688  Biso   1.000  Ir
  Ir27     1.0000 0.81610  0.19885  0.39312  Biso   1.000  Ir
  Ir28     1.0000 0.18390  0.30115  0.89312  Biso   1.000  Ir
  Ir29     1.0000 0.81610  0.30115  0.89312  Biso   1.000  Ir
  Ir30     1.0000 0.18390  0.19885  0.39312  Biso   1.000  Ir
  Ir31     1.0000 0.68390  0.30115  0.60688  Biso   1.000  Ir
  Ir32     1.0000 0.31610  0.19885  0.10688  Biso   1.000  Ir
