data_image0
_cell_length_a       9.8569
_cell_length_b       7.75491
_cell_length_c       7.79747
_cell_angle_alpha    90
_cell_angle_beta     90
_cell_angle_gamma    90

_symmetry_space_group_name_H-M    "P 1"
_symmetry_int_tables_number       1

loop_
  _symmetry_equiv_pos_as_xyz
  'x, y, z'

loop_
  _atom_site_label
  _atom_site_occupancy
  _atom_site_fract_x
  _atom_site_fract_y
  _atom_site_fract_z
  _atom_site_thermal_displace_type
  _atom_site_B_iso_or_equiv
  _atom_site_type_symbol
  Ir1      1.0000 0.78359  0.00000  0.00000  Biso   1.000  Ir
  Ir2      1.0000 0.71641  0.00000  0.50000  Biso   1.000  Ir
  Ir3      1.0000 0.21641  0.00000  0.00000  Biso   1.000  Ir
  Ir4      1.0000 0.28359  0.00000  0.50000  Biso   1.000  Ir
  Ir5      1.0000 0.50000  0.69244  0.18768  Biso   1.000  Ir
  Ir6      1.0000 0.50000  0.80755  0.68768  Biso   1.000  Ir
  Ir7      1.0000 0.50000  0.19245  0.31232  Biso   1.000  Ir
  Ir8      1.0000 0.50000  0.30755  0.81232  Biso   1.000  Ir
  Ir9      1.0000 0.28359  0.50000  0.00000  Biso   1.000  Ir
  Ir10     1.0000 0.21641  0.50000  0.50000  Biso   1.000  Ir
  Ir11     1.0000 0.71641  0.50000  0.00000  Biso   1.000  Ir
  Ir12     1.0000 0.78359  0.50000  0.50000  Biso   1.000  Ir
  Ir13     1.0000 0.00000  0.19245  0.18768  Biso   1.000  Ir
  Ir14     1.0000 0.00000  0.30755  0.68768  Biso   1.000  Ir
  Ir15     1.0000 0.00000  0.69244  0.31232  Biso   1.000  Ir
  Ir16     1.0000 0.00000  0.80755  0.81232  Biso   1.000  Ir
  O1       1.0000 0.62816  0.22630  0.04980  Biso   1.000  O
  O2       1.0000 0.37184  0.27370  0.54980  Biso   1.000  O
  O3       1.0000 0.37184  0.72630  0.45020  Biso   1.000  O
  O4       1.0000 0.62816  0.77370  0.95020  Biso   1.000  O
  O5       1.0000 0.37184  0.77370  0.95020  Biso   1.000  O
  O6       1.0000 0.62816  0.72630  0.45020  Biso   1.000  O
  O7       1.0000 0.62816  0.27370  0.54980  Biso   1.000  O
  O8       1.0000 0.37184  0.22630  0.04980  Biso   1.000  O
  O9       1.0000 0.62652  0.95525  0.22682  Biso   1.000  O
  O10      1.0000 0.87349  0.04475  0.72682  Biso   1.000  O
  O11      1.0000 0.87349  0.95525  0.27318  Biso   1.000  O
  O12      1.0000 0.62652  0.04475  0.77318  Biso   1.000  O
  O13      1.0000 0.37349  0.04475  0.77318  Biso   1.000  O
  O14      1.0000 0.12651  0.95525  0.27318  Biso   1.000  O
  O15      1.0000 0.12651  0.04475  0.72682  Biso   1.000  O
  O16      1.0000 0.37349  0.95525  0.22682  Biso   1.000  O
  O17      1.0000 0.12816  0.72630  0.04980  Biso   1.000  O
  O18      1.0000 0.87184  0.77370  0.54980  Biso   1.000  O
  O19      1.0000 0.87184  0.22630  0.45020  Biso   1.000  O
  O20      1.0000 0.12816  0.27370  0.95020  Biso   1.000  O
  O21      1.0000 0.87184  0.27370  0.95020  Biso   1.000  O
  O22      1.0000 0.12816  0.22630  0.45020  Biso   1.000  O
  O23      1.0000 0.12816  0.77370  0.54980  Biso   1.000  O
  O24      1.0000 0.87184  0.72630  0.04980  Biso   1.000  O
  O25      1.0000 0.12651  0.45525  0.22682  Biso   1.000  O
  O26      1.0000 0.37349  0.54475  0.72682  Biso   1.000  O
  O27      1.0000 0.37349  0.45525  0.27318  Biso   1.000  O
  O28      1.0000 0.12651  0.54475  0.77318  Biso   1.000  O
  O29      1.0000 0.87349  0.54475  0.77318  Biso   1.000  O
  O30      1.0000 0.62652  0.45525  0.27318  Biso   1.000  O
  O31      1.0000 0.62652  0.54475  0.72682  Biso   1.000  O
  O32      1.0000 0.87349  0.45525  0.22682  Biso   1.000  O
