data_image0
_cell_length_a       17.099
_cell_length_b       22.4547
_cell_length_c       8.55788
_cell_angle_alpha    90
_cell_angle_beta     90
_cell_angle_gamma    90

_symmetry_space_group_name_H-M    "P 1"
_symmetry_int_tables_number       1

loop_
  _symmetry_equiv_pos_as_xyz
  'x, y, z'

loop_
  _atom_site_label
  _atom_site_occupancy
  _atom_site_fract_x
  _atom_site_fract_y
  _atom_site_fract_z
  _atom_site_thermal_displace_type
  _atom_site_B_iso_or_equiv
  _atom_site_type_symbol
  O1       1.0000 0.75000  0.75000  0.00000  Biso   1.000  O
  O2       1.0000 0.75000  0.25000  0.00000  Biso   1.000  O
  O3       1.0000 0.91322  0.67684  0.00000  Biso   1.000  O
  O4       1.0000 0.08678  0.32316  0.00000  Biso   1.000  O
  O5       1.0000 0.08678  0.67684  0.00000  Biso   1.000  O
  O6       1.0000 0.91322  0.32316  0.00000  Biso   1.000  O
  O7       1.0000 0.00000  0.77995  0.81035  Biso   1.000  O
  O8       1.0000 0.00000  0.22005  0.81035  Biso   1.000  O
  O9       1.0000 0.00000  0.77995  0.18965  Biso   1.000  O
  O10      1.0000 0.00000  0.22005  0.18965  Biso   1.000  O
  O11      1.0000 0.27305  0.13490  0.80503  Biso   1.000  O
  O12      1.0000 0.72695  0.86510  0.80503  Biso   1.000  O
  O13      1.0000 0.72695  0.13490  0.19497  Biso   1.000  O
  O14      1.0000 0.27305  0.86510  0.19497  Biso   1.000  O
  O15      1.0000 0.72695  0.86510  0.19497  Biso   1.000  O
  O16      1.0000 0.27305  0.13490  0.19497  Biso   1.000  O
  O17      1.0000 0.27305  0.86510  0.80503  Biso   1.000  O
  O18      1.0000 0.72695  0.13490  0.80503  Biso   1.000  O
  O19      1.0000 0.90846  0.90486  0.79884  Biso   1.000  O
  O20      1.0000 0.09154  0.09514  0.79884  Biso   1.000  O
  O21      1.0000 0.09154  0.90486  0.20116  Biso   1.000  O
  O22      1.0000 0.90846  0.09514  0.20116  Biso   1.000  O
  O23      1.0000 0.09154  0.09514  0.20116  Biso   1.000  O
  O24      1.0000 0.90846  0.90486  0.20116  Biso   1.000  O
  O25      1.0000 0.90846  0.09514  0.79884  Biso   1.000  O
  O26      1.0000 0.09154  0.90486  0.79884  Biso   1.000  O
  O27      1.0000 0.22974  0.00000  0.79684  Biso   1.000  O
  O28      1.0000 0.77026  0.00000  0.79684  Biso   1.000  O
  O29      1.0000 0.77026  0.00000  0.20316  Biso   1.000  O
  O30      1.0000 0.22974  0.00000  0.20316  Biso   1.000  O
  O31      1.0000 0.19998  0.08375  0.50000  Biso   1.000  O
  O32      1.0000 0.80001  0.91625  0.50000  Biso   1.000  O
  O33      1.0000 0.80001  0.08375  0.50000  Biso   1.000  O
  O34      1.0000 0.19998  0.91625  0.50000  Biso   1.000  O
  O35      1.0000 0.00000  0.85345  0.50000  Biso   1.000  O
  O36      1.0000 0.00000  0.14655  0.50000  Biso   1.000  O
  O37      1.0000 0.25000  0.25000  0.00000  Biso   1.000  O
  O38      1.0000 0.25000  0.75000  0.00000  Biso   1.000  O
  O39      1.0000 0.41322  0.17684  0.00000  Biso   1.000  O
  O40      1.0000 0.58678  0.82316  0.00000  Biso   1.000  O
  O41      1.0000 0.58678  0.17684  0.00000  Biso   1.000  O
  O42      1.0000 0.41322  0.82316  0.00000  Biso   1.000  O
  O43      1.0000 0.50000  0.27995  0.81035  Biso   1.000  O
  O44      1.0000 0.50000  0.72005  0.81035  Biso   1.000  O
  O45      1.0000 0.50000  0.27995  0.18965  Biso   1.000  O
  O46      1.0000 0.50000  0.72005  0.18965  Biso   1.000  O
  O47      1.0000 0.77305  0.63490  0.80503  Biso   1.000  O
  O48      1.0000 0.22695  0.36510  0.80503  Biso   1.000  O
  O49      1.0000 0.22695  0.63490  0.19497  Biso   1.000  O
  O50      1.0000 0.77305  0.36510  0.19497  Biso   1.000  O
  O51      1.0000 0.22695  0.36510  0.19497  Biso   1.000  O
  O52      1.0000 0.77305  0.63490  0.19497  Biso   1.000  O
  O53      1.0000 0.77305  0.36510  0.80503  Biso   1.000  O
  O54      1.0000 0.22695  0.63490  0.80503  Biso   1.000  O
  O55      1.0000 0.40846  0.40486  0.79884  Biso   1.000  O
  O56      1.0000 0.59154  0.59514  0.79884  Biso   1.000  O
  O57      1.0000 0.59154  0.40486  0.20116  Biso   1.000  O
  O58      1.0000 0.40846  0.59514  0.20116  Biso   1.000  O
  O59      1.0000 0.59154  0.59514  0.20116  Biso   1.000  O
  O60      1.0000 0.40846  0.40486  0.20116  Biso   1.000  O
  O61      1.0000 0.40846  0.59514  0.79884  Biso   1.000  O
  O62      1.0000 0.59154  0.40486  0.79884  Biso   1.000  O
  O63      1.0000 0.72974  0.50000  0.79684  Biso   1.000  O
  O64      1.0000 0.27026  0.50000  0.79684  Biso   1.000  O
  O65      1.0000 0.27026  0.50000  0.20316  Biso   1.000  O
  O66      1.0000 0.72974  0.50000  0.20316  Biso   1.000  O
  O67      1.0000 0.69998  0.58375  0.50000  Biso   1.000  O
  O68      1.0000 0.30001  0.41625  0.50000  Biso   1.000  O
  O69      1.0000 0.30001  0.58375  0.50000  Biso   1.000  O
  O70      1.0000 0.69998  0.41625  0.50000  Biso   1.000  O
  O71      1.0000 0.50000  0.35345  0.50000  Biso   1.000  O
  O72      1.0000 0.50000  0.64655  0.50000  Biso   1.000  O
  Ir1      1.0000 0.30114  0.17372  0.00000  Biso   1.000  Ir
  Ir2      1.0000 0.69886  0.82628  0.00000  Biso   1.000  Ir
  Ir3      1.0000 0.69886  0.17372  0.00000  Biso   1.000  Ir
  Ir4      1.0000 0.30114  0.82628  0.00000  Biso   1.000  Ir
  Ir5      1.0000 0.00000  0.73122  0.00000  Biso   1.000  Ir
  Ir6      1.0000 0.00000  0.26878  0.00000  Biso   1.000  Ir
  Ir7      1.0000 0.00000  0.86069  0.72652  Biso   1.000  Ir
  Ir8      1.0000 0.00000  0.13931  0.72652  Biso   1.000  Ir
  Ir9      1.0000 0.00000  0.86069  0.27348  Biso   1.000  Ir
  Ir10     1.0000 0.00000  0.13931  0.27348  Biso   1.000  Ir
  Ir11     1.0000 0.19768  0.07862  0.72483  Biso   1.000  Ir
  Ir12     1.0000 0.80232  0.92138  0.72483  Biso   1.000  Ir
  Ir13     1.0000 0.80232  0.07862  0.27517  Biso   1.000  Ir
  Ir14     1.0000 0.19768  0.92138  0.27517  Biso   1.000  Ir
  Ir15     1.0000 0.80232  0.92138  0.27517  Biso   1.000  Ir
  Ir16     1.0000 0.19768  0.07862  0.27517  Biso   1.000  Ir
  Ir17     1.0000 0.19768  0.92138  0.72483  Biso   1.000  Ir
  Ir18     1.0000 0.80232  0.07862  0.72483  Biso   1.000  Ir
  Ir19     1.0000 0.80114  0.67372  0.00000  Biso   1.000  Ir
  Ir20     1.0000 0.19886  0.32628  0.00000  Biso   1.000  Ir
  Ir21     1.0000 0.19886  0.67372  0.00000  Biso   1.000  Ir
  Ir22     1.0000 0.80114  0.32628  0.00000  Biso   1.000  Ir
  Ir23     1.0000 0.50000  0.23122  0.00000  Biso   1.000  Ir
  Ir24     1.0000 0.50000  0.76878  0.00000  Biso   1.000  Ir
  Ir25     1.0000 0.50000  0.36069  0.72652  Biso   1.000  Ir
  Ir26     1.0000 0.50000  0.63931  0.72652  Biso   1.000  Ir
  Ir27     1.0000 0.50000  0.36069  0.27348  Biso   1.000  Ir
  Ir28     1.0000 0.50000  0.63931  0.27348  Biso   1.000  Ir
  Ir29     1.0000 0.69768  0.57862  0.72483  Biso   1.000  Ir
  Ir30     1.0000 0.30232  0.42138  0.72483  Biso   1.000  Ir
  Ir31     1.0000 0.30232  0.57862  0.27517  Biso   1.000  Ir
  Ir32     1.0000 0.69768  0.42138  0.27517  Biso   1.000  Ir
  Ir33     1.0000 0.30232  0.42138  0.27517  Biso   1.000  Ir
  Ir34     1.0000 0.69768  0.57862  0.27517  Biso   1.000  Ir
  Ir35     1.0000 0.69768  0.42138  0.72483  Biso   1.000  Ir
  Ir36     1.0000 0.30232  0.57862  0.72483  Biso   1.000  Ir
