data_image0
_cell_length_a       9.5846
_cell_length_b       9.58522
_cell_length_c       9.58523
_cell_angle_alpha    81.6727
_cell_angle_beta     81.6756
_cell_angle_gamma    81.6727

_symmetry_space_group_name_H-M    "P 1"
_symmetry_int_tables_number       1

loop_
  _symmetry_equiv_pos_as_xyz
  'x, y, z'

loop_
  _atom_site_label
  _atom_site_occupancy
  _atom_site_fract_x
  _atom_site_fract_y
  _atom_site_fract_z
  _atom_site_thermal_displace_type
  _atom_site_B_iso_or_equiv
  _atom_site_type_symbol
  Ir1      1.0000 0.97809  0.64079  0.31916  Biso   1.000  Ir
  Ir2      1.0000 0.96927  0.96926  0.96926  Biso   1.000  Ir
  Ir3      1.0000 0.68796  0.68789  0.68792  Biso   1.000  Ir
  Ir4      1.0000 0.68790  0.01547  0.34330  Biso   1.000  Ir
  Ir5      1.0000 0.64080  0.31919  0.97803  Biso   1.000  Ir
  Ir6      1.0000 0.35542  0.35538  0.35545  Biso   1.000  Ir
  Ir7      1.0000 0.34329  0.68792  0.01548  Biso   1.000  Ir
  Ir8      1.0000 0.31920  0.97808  0.64075  Biso   1.000  Ir
  Ir9      1.0000 0.01548  0.34335  0.68795  Biso   1.000  Ir
  O1       1.0000 0.99594  0.65318  0.62896  Biso   1.000  O
  O2       1.0000 0.99239  0.95374  0.28063  Biso   1.000  O
  O3       1.0000 0.95375  0.28064  0.99235  Biso   1.000  O
  O4       1.0000 0.70513  0.37634  0.67233  Biso   1.000  O
  O5       1.0000 0.67231  0.70510  0.37635  Biso   1.000  O
  O6       1.0000 0.66425  0.32622  0.29151  Biso   1.000  O
  O7       1.0000 0.66138  0.00905  0.03223  Biso   1.000  O
  O8       1.0000 0.65319  0.62895  0.99596  Biso   1.000  O
  O9       1.0000 0.62895  0.99596  0.65319  Biso   1.000  O
  O10      1.0000 0.37636  0.67232  0.70512  Biso   1.000  O
  O11      1.0000 0.37432  0.04399  0.33543  Biso   1.000  O
  O12      1.0000 0.33541  0.37433  0.04401  Biso   1.000  O
  O13      1.0000 0.32618  0.29153  0.66423  Biso   1.000  O
  O14      1.0000 0.29151  0.66423  0.32622  Biso   1.000  O
  O15      1.0000 0.28065  0.99238  0.95373  Biso   1.000  O
  O16      1.0000 0.04399  0.33541  0.37435  Biso   1.000  O
  O17      1.0000 0.03223  0.66143  0.00909  Biso   1.000  O
  O18      1.0000 0.00905  0.03227  0.66137  Biso   1.000  O
