data_image0
_cell_length_a       9.20353
_cell_length_b       9.20353
_cell_length_c       7.05101
_cell_angle_alpha    90
_cell_angle_beta     90
_cell_angle_gamma    120

_symmetry_space_group_name_H-M    "P 1"
_symmetry_int_tables_number       1

loop_
  _symmetry_equiv_pos_as_xyz
  'x, y, z'

loop_
  _atom_site_label
  _atom_site_occupancy
  _atom_site_fract_x
  _atom_site_fract_y
  _atom_site_fract_z
  _atom_site_thermal_displace_type
  _atom_site_B_iso_or_equiv
  _atom_site_type_symbol
  O1       1.0000 0.61181  0.22361  0.75000  Biso   1.000  O
  O2       1.0000 0.77639  0.38819  0.41667  Biso   1.000  O
  O3       1.0000 0.61181  0.38819  0.08333  Biso   1.000  O
  O4       1.0000 0.38819  0.77639  0.25000  Biso   1.000  O
  O5       1.0000 0.22361  0.61181  0.91667  Biso   1.000  O
  O6       1.0000 0.38819  0.61181  0.58333  Biso   1.000  O
  O7       1.0000 0.31550  0.00000  0.00000  Biso   1.000  O
  O8       1.0000 0.00000  0.31550  0.66667  Biso   1.000  O
  O9       1.0000 0.68450  0.68450  0.33333  Biso   1.000  O
  O10      1.0000 0.68450  0.00000  0.50000  Biso   1.000  O
  O11      1.0000 0.00000  0.68450  0.16667  Biso   1.000  O
  O12      1.0000 0.31550  0.31550  0.83333  Biso   1.000  O
  Ir1      1.0000 0.23282  0.46563  0.75000  Biso   1.000  Ir
  Ir2      1.0000 0.53437  0.76718  0.41667  Biso   1.000  Ir
  Ir3      1.0000 0.23282  0.76718  0.08333  Biso   1.000  Ir
  Ir4      1.0000 0.76718  0.53437  0.25000  Biso   1.000  Ir
  Ir5      1.0000 0.46563  0.23282  0.91667  Biso   1.000  Ir
  Ir6      1.0000 0.76718  0.23282  0.58333  Biso   1.000  Ir
