data_image0
_cell_length_a       5.40855
_cell_length_b       9.34142
_cell_length_c       18.3948
_cell_angle_alpha    90
_cell_angle_beta     90
_cell_angle_gamma    90

_symmetry_space_group_name_H-M    "P 1"
_symmetry_int_tables_number       1

loop_
  _symmetry_equiv_pos_as_xyz
  'x, y, z'

loop_
  _atom_site_label
  _atom_site_occupancy
  _atom_site_fract_x
  _atom_site_fract_y
  _atom_site_fract_z
  _atom_site_thermal_displace_type
  _atom_site_B_iso_or_equiv
  _atom_site_type_symbol
  Ir1      1.0000 0.50000  0.00000  0.12671  Biso   1.000  Ir
  Ir2      1.0000 0.00000  0.00000  0.37330  Biso   1.000  Ir
  Ir3      1.0000 0.25000  0.75000  0.12330  Biso   1.000  Ir
  Ir4      1.0000 0.25000  0.75000  0.37671  Biso   1.000  Ir
  Ir5      1.0000 0.50000  0.50000  0.62670  Biso   1.000  Ir
  Ir6      1.0000 0.00000  0.50000  0.87330  Biso   1.000  Ir
  Ir7      1.0000 0.25000  0.25000  0.62330  Biso   1.000  Ir
  Ir8      1.0000 0.25000  0.25000  0.87670  Biso   1.000  Ir
  Ir9      1.0000 0.00000  0.00000  0.62670  Biso   1.000  Ir
  Ir10     1.0000 0.50000  0.00000  0.87330  Biso   1.000  Ir
  Ir11     1.0000 0.75000  0.75000  0.62330  Biso   1.000  Ir
  Ir12     1.0000 0.75000  0.75000  0.87670  Biso   1.000  Ir
  Ir13     1.0000 0.00000  0.50000  0.12671  Biso   1.000  Ir
  Ir14     1.0000 0.50000  0.50000  0.37330  Biso   1.000  Ir
  Ir15     1.0000 0.75000  0.25000  0.12330  Biso   1.000  Ir
  Ir16     1.0000 0.75000  0.25000  0.37671  Biso   1.000  Ir
  O1       1.0000 0.00000  0.83534  0.50000  Biso   1.000  O
  O2       1.0000 0.00000  0.16466  0.50000  Biso   1.000  O
  O3       1.0000 0.25000  0.91466  0.25000  Biso   1.000  O
  O4       1.0000 0.25000  0.58534  0.25000  Biso   1.000  O
  O5       1.0000 0.00000  0.00000  0.08164  Biso   1.000  O
  O6       1.0000 0.50000  0.00000  0.41835  Biso   1.000  O
  O7       1.0000 0.25000  0.25000  0.16836  Biso   1.000  O
  O8       1.0000 0.25000  0.25000  0.33165  Biso   1.000  O
  O9       1.0000 0.00000  0.33534  0.00000  Biso   1.000  O
  O10      1.0000 0.00000  0.66466  0.00000  Biso   1.000  O
  O11      1.0000 0.25000  0.41466  0.75000  Biso   1.000  O
  O12      1.0000 0.25000  0.08534  0.75000  Biso   1.000  O
  O13      1.0000 0.00000  0.50000  0.58164  Biso   1.000  O
  O14      1.0000 0.50000  0.50000  0.91836  Biso   1.000  O
  O15      1.0000 0.25000  0.75000  0.66836  Biso   1.000  O
  O16      1.0000 0.25000  0.75000  0.83164  Biso   1.000  O
  O17      1.0000 0.50000  0.83534  0.00000  Biso   1.000  O
  O18      1.0000 0.50000  0.16466  0.00000  Biso   1.000  O
  O19      1.0000 0.75000  0.91466  0.75000  Biso   1.000  O
  O20      1.0000 0.75000  0.58534  0.75000  Biso   1.000  O
  O21      1.0000 0.50000  0.00000  0.58164  Biso   1.000  O
  O22      1.0000 0.00000  0.00000  0.91836  Biso   1.000  O
  O23      1.0000 0.75000  0.25000  0.66836  Biso   1.000  O
  O24      1.0000 0.75000  0.25000  0.83164  Biso   1.000  O
  O25      1.0000 0.50000  0.33534  0.50000  Biso   1.000  O
  O26      1.0000 0.50000  0.66466  0.50000  Biso   1.000  O
  O27      1.0000 0.75000  0.41466  0.25000  Biso   1.000  O
  O28      1.0000 0.75000  0.08534  0.25000  Biso   1.000  O
  O29      1.0000 0.50000  0.50000  0.08164  Biso   1.000  O
  O30      1.0000 0.00000  0.50000  0.41835  Biso   1.000  O
  O31      1.0000 0.75000  0.75000  0.16836  Biso   1.000  O
  O32      1.0000 0.75000  0.75000  0.33165  Biso   1.000  O
