data_image0
_cell_length_a       15.4563
_cell_length_b       15.4563
_cell_length_c       16.1588
_cell_angle_alpha    90
_cell_angle_beta     90
_cell_angle_gamma    90

_symmetry_space_group_name_H-M    "P 1"
_symmetry_int_tables_number       1

loop_
  _symmetry_equiv_pos_as_xyz
  'x, y, z'

loop_
  _atom_site_label
  _atom_site_occupancy
  _atom_site_fract_x
  _atom_site_fract_y
  _atom_site_fract_z
  _atom_site_thermal_displace_type
  _atom_site_B_iso_or_equiv
  _atom_site_type_symbol
  O1       1.0000 0.16035  0.65020  0.00000  Biso   1.000  O
  O2       1.0000 0.83965  0.34980  0.00000  Biso   1.000  O
  O3       1.0000 0.34980  0.16035  0.50000  Biso   1.000  O
  O4       1.0000 0.65020  0.83965  0.50000  Biso   1.000  O
  O5       1.0000 0.83965  0.65020  0.00000  Biso   1.000  O
  O6       1.0000 0.16035  0.34980  0.00000  Biso   1.000  O
  O7       1.0000 0.65020  0.16035  0.50000  Biso   1.000  O
  O8       1.0000 0.34980  0.83965  0.50000  Biso   1.000  O
  O9       1.0000 0.00000  0.35378  0.12704  Biso   1.000  O
  O10      1.0000 0.00000  0.64622  0.12704  Biso   1.000  O
  O11      1.0000 0.64622  0.00000  0.62704  Biso   1.000  O
  O12      1.0000 0.35378  0.00000  0.62704  Biso   1.000  O
  O13      1.0000 0.00000  0.35378  0.87297  Biso   1.000  O
  O14      1.0000 0.00000  0.64622  0.87297  Biso   1.000  O
  O15      1.0000 0.35378  0.00000  0.37297  Biso   1.000  O
  O16      1.0000 0.64622  0.00000  0.37297  Biso   1.000  O
  O17      1.0000 0.18046  0.10309  0.16626  Biso   1.000  O
  O18      1.0000 0.81954  0.89691  0.16626  Biso   1.000  O
  O19      1.0000 0.89691  0.18046  0.66626  Biso   1.000  O
  O20      1.0000 0.10309  0.81954  0.66626  Biso   1.000  O
  O21      1.0000 0.81954  0.10309  0.83374  Biso   1.000  O
  O22      1.0000 0.18046  0.89691  0.83374  Biso   1.000  O
  O23      1.0000 0.10309  0.18046  0.33374  Biso   1.000  O
  O24      1.0000 0.89691  0.81954  0.33374  Biso   1.000  O
  O25      1.0000 0.81954  0.89691  0.83374  Biso   1.000  O
  O26      1.0000 0.18046  0.10309  0.83374  Biso   1.000  O
  O27      1.0000 0.10309  0.81954  0.33374  Biso   1.000  O
  O28      1.0000 0.89691  0.18046  0.33374  Biso   1.000  O
  O29      1.0000 0.18046  0.89691  0.16626  Biso   1.000  O
  O30      1.0000 0.81954  0.10309  0.16626  Biso   1.000  O
  O31      1.0000 0.89691  0.81954  0.66626  Biso   1.000  O
  O32      1.0000 0.10309  0.18046  0.66626  Biso   1.000  O
  O33      1.0000 0.30714  0.18855  0.30547  Biso   1.000  O
  O34      1.0000 0.69286  0.81145  0.30547  Biso   1.000  O
  O35      1.0000 0.81145  0.30714  0.80547  Biso   1.000  O
  O36      1.0000 0.18855  0.69286  0.80547  Biso   1.000  O
  O37      1.0000 0.69286  0.18855  0.69453  Biso   1.000  O
  O38      1.0000 0.30714  0.81145  0.69453  Biso   1.000  O
  O39      1.0000 0.18855  0.30714  0.19453  Biso   1.000  O
  O40      1.0000 0.81145  0.69286  0.19453  Biso   1.000  O
  O41      1.0000 0.69286  0.81145  0.69453  Biso   1.000  O
  O42      1.0000 0.30714  0.18855  0.69453  Biso   1.000  O
  O43      1.0000 0.18855  0.69286  0.19453  Biso   1.000  O
  O44      1.0000 0.81145  0.30714  0.19453  Biso   1.000  O
  O45      1.0000 0.30714  0.81145  0.30547  Biso   1.000  O
  O46      1.0000 0.69286  0.18855  0.30547  Biso   1.000  O
  O47      1.0000 0.81145  0.69286  0.80547  Biso   1.000  O
  O48      1.0000 0.18855  0.30714  0.80547  Biso   1.000  O
  O49      1.0000 0.50000  0.14910  0.36118  Biso   1.000  O
  O50      1.0000 0.50000  0.85090  0.36118  Biso   1.000  O
  O51      1.0000 0.85090  0.50000  0.86118  Biso   1.000  O
  O52      1.0000 0.14910  0.50000  0.86118  Biso   1.000  O
  O53      1.0000 0.50000  0.14910  0.63882  Biso   1.000  O
  O54      1.0000 0.50000  0.85090  0.63882  Biso   1.000  O
  O55      1.0000 0.14910  0.50000  0.13882  Biso   1.000  O
  O56      1.0000 0.85090  0.50000  0.13882  Biso   1.000  O
  O57      1.0000 0.15210  0.00000  0.00000  Biso   1.000  O
  O58      1.0000 0.84789  0.00000  0.00000  Biso   1.000  O
  O59      1.0000 0.00000  0.15210  0.50000  Biso   1.000  O
  O60      1.0000 0.00000  0.84789  0.50000  Biso   1.000  O
  O61      1.0000 0.00000  0.00000  0.63638  Biso   1.000  O
  O62      1.0000 0.00000  0.00000  0.13638  Biso   1.000  O
  O63      1.0000 0.00000  0.00000  0.36362  Biso   1.000  O
  O64      1.0000 0.00000  0.00000  0.86362  Biso   1.000  O
  Ir1      1.0000 0.12462  0.62226  0.88539  Biso   1.000  Ir
  Ir2      1.0000 0.87538  0.37774  0.88539  Biso   1.000  Ir
  Ir3      1.0000 0.37774  0.12462  0.38539  Biso   1.000  Ir
  Ir4      1.0000 0.62226  0.87538  0.38539  Biso   1.000  Ir
  Ir5      1.0000 0.87538  0.62226  0.11461  Biso   1.000  Ir
  Ir6      1.0000 0.12462  0.37774  0.11461  Biso   1.000  Ir
  Ir7      1.0000 0.62226  0.12462  0.61461  Biso   1.000  Ir
  Ir8      1.0000 0.37774  0.87538  0.61461  Biso   1.000  Ir
  Ir9      1.0000 0.87538  0.37774  0.11461  Biso   1.000  Ir
  Ir10     1.0000 0.12462  0.62226  0.11461  Biso   1.000  Ir
  Ir11     1.0000 0.62226  0.87538  0.61461  Biso   1.000  Ir
  Ir12     1.0000 0.37774  0.12462  0.61461  Biso   1.000  Ir
  Ir13     1.0000 0.12462  0.37774  0.88539  Biso   1.000  Ir
  Ir14     1.0000 0.87538  0.62226  0.88539  Biso   1.000  Ir
  Ir15     1.0000 0.37774  0.87538  0.38539  Biso   1.000  Ir
  Ir16     1.0000 0.62226  0.12462  0.38539  Biso   1.000  Ir
  Ir17     1.0000 0.80585  0.80585  0.25000  Biso   1.000  Ir
  Ir18     1.0000 0.19415  0.19415  0.25000  Biso   1.000  Ir
  Ir19     1.0000 0.19415  0.80585  0.75000  Biso   1.000  Ir
  Ir20     1.0000 0.80585  0.19415  0.75000  Biso   1.000  Ir
  Ir21     1.0000 0.19415  0.19415  0.75000  Biso   1.000  Ir
  Ir22     1.0000 0.80585  0.80585  0.75000  Biso   1.000  Ir
  Ir23     1.0000 0.80585  0.19415  0.25000  Biso   1.000  Ir
  Ir24     1.0000 0.19415  0.80585  0.25000  Biso   1.000  Ir
  Ir25     1.0000 0.00000  0.87348  0.38186  Biso   1.000  Ir
  Ir26     1.0000 0.00000  0.12652  0.38186  Biso   1.000  Ir
  Ir27     1.0000 0.12652  0.00000  0.88186  Biso   1.000  Ir
  Ir28     1.0000 0.87348  0.00000  0.88186  Biso   1.000  Ir
  Ir29     1.0000 0.00000  0.87348  0.61814  Biso   1.000  Ir
  Ir30     1.0000 0.00000  0.12652  0.61814  Biso   1.000  Ir
  Ir31     1.0000 0.87348  0.00000  0.11814  Biso   1.000  Ir
  Ir32     1.0000 0.12652  0.00000  0.11814  Biso   1.000  Ir
