data_image0
_cell_length_a       5.03586
_cell_length_b       8.7201
_cell_length_c       16.3045
_cell_angle_alpha    90
_cell_angle_beta     90
_cell_angle_gamma    90

_symmetry_space_group_name_H-M    "P 1"
_symmetry_int_tables_number       1

loop_
  _symmetry_equiv_pos_as_xyz
  'x, y, z'

loop_
  _atom_site_label
  _atom_site_occupancy
  _atom_site_fract_x
  _atom_site_fract_y
  _atom_site_fract_z
  _atom_site_thermal_displace_type
  _atom_site_B_iso_or_equiv
  _atom_site_type_symbol
  O1       1.0000 0.75000  0.25000  0.00000  Biso   1.000  O
  O2       1.0000 0.75000  0.25000  0.50000  Biso   1.000  O
  O3       1.0000 0.25000  0.25000  0.50000  Biso   1.000  O
  O4       1.0000 0.25000  0.25000  0.00000  Biso   1.000  O
  O5       1.0000 0.00000  0.00000  0.00000  Biso   1.000  O
  O6       1.0000 0.00000  0.00000  0.50000  Biso   1.000  O
  O7       1.0000 0.00000  0.83335  0.12343  Biso   1.000  O
  O8       1.0000 0.00000  0.16665  0.62343  Biso   1.000  O
  O9       1.0000 0.00000  0.83335  0.37657  Biso   1.000  O
  O10      1.0000 0.00000  0.16665  0.87657  Biso   1.000  O
  O11      1.0000 0.24670  0.58224  0.75000  Biso   1.000  O
  O12      1.0000 0.75330  0.41776  0.25000  Biso   1.000  O
  O13      1.0000 0.75330  0.58224  0.75000  Biso   1.000  O
  O14      1.0000 0.24670  0.41776  0.25000  Biso   1.000  O
  O15      1.0000 0.00000  0.33551  0.75000  Biso   1.000  O
  O16      1.0000 0.00000  0.66449  0.25000  Biso   1.000  O
  O17      1.0000 0.25000  0.75000  0.00000  Biso   1.000  O
  O18      1.0000 0.25000  0.75000  0.50000  Biso   1.000  O
  O19      1.0000 0.75000  0.75000  0.50000  Biso   1.000  O
  O20      1.0000 0.75000  0.75000  0.00000  Biso   1.000  O
  O21      1.0000 0.50000  0.50000  0.00000  Biso   1.000  O
  O22      1.0000 0.50000  0.50000  0.50000  Biso   1.000  O
  O23      1.0000 0.50000  0.33335  0.12343  Biso   1.000  O
  O24      1.0000 0.50000  0.66665  0.62343  Biso   1.000  O
  O25      1.0000 0.50000  0.33335  0.37657  Biso   1.000  O
  O26      1.0000 0.50000  0.66665  0.87657  Biso   1.000  O
  O27      1.0000 0.74670  0.08224  0.75000  Biso   1.000  O
  O28      1.0000 0.25330  0.91776  0.25000  Biso   1.000  O
  O29      1.0000 0.25330  0.08224  0.75000  Biso   1.000  O
  O30      1.0000 0.74670  0.91776  0.25000  Biso   1.000  O
  O31      1.0000 0.50000  0.83551  0.75000  Biso   1.000  O
  O32      1.0000 0.50000  0.16449  0.25000  Biso   1.000  O
  Ir1      1.0000 0.00000  0.50001  0.09446  Biso   1.000  Ir
  Ir2      1.0000 0.00000  0.49999  0.59446  Biso   1.000  Ir
  Ir3      1.0000 0.00000  0.50001  0.40554  Biso   1.000  Ir
  Ir4      1.0000 0.00000  0.49999  0.90554  Biso   1.000  Ir
  Ir5      1.0000 0.00000  0.83336  0.84396  Biso   1.000  Ir
  Ir6      1.0000 0.00000  0.16663  0.34396  Biso   1.000  Ir
  Ir7      1.0000 0.00000  0.83336  0.65604  Biso   1.000  Ir
  Ir8      1.0000 0.00000  0.16663  0.15604  Biso   1.000  Ir
  Ir9      1.0000 0.50000  0.00001  0.09446  Biso   1.000  Ir
  Ir10     1.0000 0.50000  0.99999  0.59446  Biso   1.000  Ir
  Ir11     1.0000 0.50000  0.00001  0.40554  Biso   1.000  Ir
  Ir12     1.0000 0.50000  0.99999  0.90554  Biso   1.000  Ir
  Ir13     1.0000 0.50000  0.33336  0.84396  Biso   1.000  Ir
  Ir14     1.0000 0.50000  0.66664  0.34396  Biso   1.000  Ir
  Ir15     1.0000 0.50000  0.33336  0.65604  Biso   1.000  Ir
  Ir16     1.0000 0.50000  0.66664  0.15604  Biso   1.000  Ir
