data_image0
_cell_length_a       14.2572
_cell_length_b       14.2572
_cell_length_c       5.29849
_cell_angle_alpha    90
_cell_angle_beta     90
_cell_angle_gamma    90

_symmetry_space_group_name_H-M    "P 1"
_symmetry_int_tables_number       1

loop_
  _symmetry_equiv_pos_as_xyz
  'x, y, z'

loop_
  _atom_site_label
  _atom_site_occupancy
  _atom_site_fract_x
  _atom_site_fract_y
  _atom_site_fract_z
  _atom_site_thermal_displace_type
  _atom_site_B_iso_or_equiv
  _atom_site_type_symbol
  O1       1.0000 0.81952  0.82520  0.86416  Biso   1.000  O
  O2       1.0000 0.18048  0.17480  0.86416  Biso   1.000  O
  O3       1.0000 0.67480  0.31952  0.86416  Biso   1.000  O
  O4       1.0000 0.32520  0.68048  0.86416  Biso   1.000  O
  O5       1.0000 0.68048  0.67480  0.13584  Biso   1.000  O
  O6       1.0000 0.31952  0.32520  0.13584  Biso   1.000  O
  O7       1.0000 0.82520  0.18048  0.13584  Biso   1.000  O
  O8       1.0000 0.17480  0.81952  0.13584  Biso   1.000  O
  O9       1.0000 0.64153  0.86090  0.48567  Biso   1.000  O
  O10      1.0000 0.35846  0.13910  0.48567  Biso   1.000  O
  O11      1.0000 0.63910  0.14153  0.48567  Biso   1.000  O
  O12      1.0000 0.36090  0.85847  0.48567  Biso   1.000  O
  O13      1.0000 0.85847  0.63910  0.51433  Biso   1.000  O
  O14      1.0000 0.14153  0.36090  0.51433  Biso   1.000  O
  O15      1.0000 0.86090  0.35846  0.51433  Biso   1.000  O
  O16      1.0000 0.13910  0.64153  0.51433  Biso   1.000  O
  O17      1.0000 0.49488  0.18832  0.98489  Biso   1.000  O
  O18      1.0000 0.50513  0.81168  0.98489  Biso   1.000  O
  O19      1.0000 0.31168  0.99488  0.98489  Biso   1.000  O
  O20      1.0000 0.68832  0.00513  0.98489  Biso   1.000  O
  O21      1.0000 0.00513  0.31168  0.01511  Biso   1.000  O
  O22      1.0000 0.99488  0.68832  0.01511  Biso   1.000  O
  O23      1.0000 0.18832  0.50513  0.01511  Biso   1.000  O
  O24      1.0000 0.81168  0.49488  0.01511  Biso   1.000  O
  O25      1.0000 0.31218  0.50110  0.51315  Biso   1.000  O
  O26      1.0000 0.68782  0.49890  0.51315  Biso   1.000  O
  O27      1.0000 0.99890  0.81218  0.51315  Biso   1.000  O
  O28      1.0000 0.00110  0.18782  0.51315  Biso   1.000  O
  O29      1.0000 0.18782  0.99890  0.48685  Biso   1.000  O
  O30      1.0000 0.81218  0.00110  0.48685  Biso   1.000  O
  O31      1.0000 0.50110  0.68782  0.48685  Biso   1.000  O
  O32      1.0000 0.49890  0.31218  0.48685  Biso   1.000  O
  Ir1      1.0000 0.07919  0.73703  0.28804  Biso   1.000  Ir
  Ir2      1.0000 0.92082  0.26297  0.28804  Biso   1.000  Ir
  Ir3      1.0000 0.76297  0.57919  0.28804  Biso   1.000  Ir
  Ir4      1.0000 0.23703  0.42082  0.28804  Biso   1.000  Ir
  Ir5      1.0000 0.42082  0.76297  0.71196  Biso   1.000  Ir
  Ir6      1.0000 0.57919  0.23703  0.71196  Biso   1.000  Ir
  Ir7      1.0000 0.73703  0.92082  0.71196  Biso   1.000  Ir
  Ir8      1.0000 0.26297  0.07919  0.71196  Biso   1.000  Ir
  Ir9      1.0000 0.58423  0.76192  0.26628  Biso   1.000  Ir
  Ir10     1.0000 0.41577  0.23808  0.26628  Biso   1.000  Ir
  Ir11     1.0000 0.73808  0.08423  0.26628  Biso   1.000  Ir
  Ir12     1.0000 0.26192  0.91577  0.26628  Biso   1.000  Ir
  Ir13     1.0000 0.91577  0.73808  0.73372  Biso   1.000  Ir
  Ir14     1.0000 0.08423  0.26192  0.73372  Biso   1.000  Ir
  Ir15     1.0000 0.76192  0.41577  0.73372  Biso   1.000  Ir
  Ir16     1.0000 0.23808  0.58423  0.73372  Biso   1.000  Ir
