data_image0
_cell_length_a       4.82435
_cell_length_b       11.0061
_cell_length_c       5.2168
_cell_angle_alpha    90
_cell_angle_beta     90
_cell_angle_gamma    90

_symmetry_space_group_name_H-M    "P 1"
_symmetry_int_tables_number       1

loop_
  _symmetry_equiv_pos_as_xyz
  'x, y, z'

loop_
  _atom_site_label
  _atom_site_occupancy
  _atom_site_fract_x
  _atom_site_fract_y
  _atom_site_fract_z
  _atom_site_thermal_displace_type
  _atom_site_B_iso_or_equiv
  _atom_site_type_symbol
  Ir1      1.0000 0.50000  0.50000  0.06040  Biso   1.000  Ir
  Ir2      1.0000 0.50000  0.00000  0.56007  Biso   1.000  Ir
  Ir3      1.0000 0.00000  0.50000  0.60640  Biso   1.000  Ir
  Ir4      1.0000 0.00000  0.00000  0.10644  Biso   1.000  Ir
  O1       1.0000 0.50000  0.70002  0.50054  Biso   1.000  O
  O2       1.0000 0.50000  0.29998  0.50054  Biso   1.000  O
  O3       1.0000 0.50000  0.79980  0.00103  Biso   1.000  O
  O4       1.0000 0.50000  0.20020  0.00103  Biso   1.000  O
  O5       1.0000 0.00000  0.70004  0.16584  Biso   1.000  O
  O6       1.0000 0.00000  0.29996  0.16584  Biso   1.000  O
  O7       1.0000 0.00000  0.79982  0.66589  Biso   1.000  O
  O8       1.0000 0.00000  0.20018  0.66589  Biso   1.000  O
