data_image0
_cell_length_a       31.5262
_cell_length_b       31.5263
_cell_length_c       10.8171
_cell_angle_alpha    90
_cell_angle_beta     90
_cell_angle_gamma    120

_symmetry_space_group_name_H-M    "P 1"
_symmetry_int_tables_number       1

loop_
  _symmetry_equiv_pos_as_xyz
  'x, y, z'

loop_
  _atom_site_label
  _atom_site_occupancy
  _atom_site_fract_x
  _atom_site_fract_y
  _atom_site_fract_z
  _atom_site_thermal_displace_type
  _atom_site_B_iso_or_equiv
  _atom_site_type_symbol
  O1       1.0000 0.39438  0.78876  0.29785  Biso   1.000  O
  O2       1.0000 0.21124  0.60562  0.29785  Biso   1.000  O
  O3       1.0000 0.39438  0.60562  0.29785  Biso   1.000  O
  O4       1.0000 0.60562  0.21124  0.29785  Biso   1.000  O
  O5       1.0000 0.78876  0.39438  0.29785  Biso   1.000  O
  O6       1.0000 0.60562  0.39438  0.29785  Biso   1.000  O
  O7       1.0000 0.78876  0.39438  0.70215  Biso   1.000  O
  O8       1.0000 0.60562  0.21124  0.70215  Biso   1.000  O
  O9       1.0000 0.60562  0.39438  0.70215  Biso   1.000  O
  O10      1.0000 0.21124  0.60562  0.70215  Biso   1.000  O
  O11      1.0000 0.39438  0.78876  0.70215  Biso   1.000  O
  O12      1.0000 0.39438  0.60562  0.70215  Biso   1.000  O
  O13      1.0000 0.40463  0.00000  0.80295  Biso   1.000  O
  O14      1.0000 0.00000  0.40463  0.80295  Biso   1.000  O
  O15      1.0000 0.59537  0.59537  0.80295  Biso   1.000  O
  O16      1.0000 0.59537  0.00000  0.80295  Biso   1.000  O
  O17      1.0000 0.00000  0.59537  0.80295  Biso   1.000  O
  O18      1.0000 0.40463  0.40463  0.80295  Biso   1.000  O
  O19      1.0000 0.00000  0.40463  0.19705  Biso   1.000  O
  O20      1.0000 0.40463  0.00000  0.19705  Biso   1.000  O
  O21      1.0000 0.59537  0.59537  0.19705  Biso   1.000  O
  O22      1.0000 0.00000  0.59537  0.19705  Biso   1.000  O
  O23      1.0000 0.59537  0.00000  0.19705  Biso   1.000  O
  O24      1.0000 0.40463  0.40463  0.19705  Biso   1.000  O
  O25      1.0000 0.47225  0.13153  0.74071  Biso   1.000  O
  O26      1.0000 0.86847  0.34071  0.74071  Biso   1.000  O
  O27      1.0000 0.65929  0.52775  0.74071  Biso   1.000  O
  O28      1.0000 0.52775  0.86847  0.74071  Biso   1.000  O
  O29      1.0000 0.13154  0.65929  0.74071  Biso   1.000  O
  O30      1.0000 0.34071  0.47225  0.74071  Biso   1.000  O
  O31      1.0000 0.13154  0.47225  0.25929  Biso   1.000  O
  O32      1.0000 0.34071  0.86847  0.25929  Biso   1.000  O
  O33      1.0000 0.52775  0.65929  0.25929  Biso   1.000  O
  O34      1.0000 0.86847  0.52775  0.25929  Biso   1.000  O
  O35      1.0000 0.65929  0.13153  0.25929  Biso   1.000  O
  O36      1.0000 0.47225  0.34071  0.25929  Biso   1.000  O
  O37      1.0000 0.52775  0.86847  0.25929  Biso   1.000  O
  O38      1.0000 0.13154  0.65929  0.25929  Biso   1.000  O
  O39      1.0000 0.34071  0.47225  0.25929  Biso   1.000  O
  O40      1.0000 0.47225  0.13153  0.25929  Biso   1.000  O
  O41      1.0000 0.86847  0.34071  0.25929  Biso   1.000  O
  O42      1.0000 0.65929  0.52775  0.25929  Biso   1.000  O
  O43      1.0000 0.86847  0.52775  0.74071  Biso   1.000  O
  O44      1.0000 0.65929  0.13153  0.74071  Biso   1.000  O
  O45      1.0000 0.47225  0.34071  0.74071  Biso   1.000  O
  O46      1.0000 0.13154  0.47225  0.74071  Biso   1.000  O
  O47      1.0000 0.34071  0.86847  0.74071  Biso   1.000  O
  O48      1.0000 0.52775  0.65929  0.74071  Biso   1.000  O
  O49      1.0000 0.46389  0.92778  0.84097  Biso   1.000  O
  O50      1.0000 0.07222  0.53611  0.84097  Biso   1.000  O
  O51      1.0000 0.46389  0.53611  0.84097  Biso   1.000  O
  O52      1.0000 0.53611  0.07222  0.84097  Biso   1.000  O
  O53      1.0000 0.92778  0.46389  0.84097  Biso   1.000  O
  O54      1.0000 0.53611  0.46389  0.84097  Biso   1.000  O
  O55      1.0000 0.92778  0.46389  0.15903  Biso   1.000  O
  O56      1.0000 0.53611  0.07222  0.15903  Biso   1.000  O
  O57      1.0000 0.53611  0.46389  0.15903  Biso   1.000  O
  O58      1.0000 0.07222  0.53611  0.15903  Biso   1.000  O
  O59      1.0000 0.46389  0.92778  0.15903  Biso   1.000  O
  O60      1.0000 0.46389  0.53611  0.15903  Biso   1.000  O
  O61      1.0000 0.33304  0.81506  0.50000  Biso   1.000  O
  O62      1.0000 0.18494  0.51798  0.50000  Biso   1.000  O
  O63      1.0000 0.48202  0.66696  0.50000  Biso   1.000  O
  O64      1.0000 0.66696  0.18494  0.50000  Biso   1.000  O
  O65      1.0000 0.81506  0.48202  0.50000  Biso   1.000  O
  O66      1.0000 0.51798  0.33304  0.50000  Biso   1.000  O
  O67      1.0000 0.81506  0.33304  0.50000  Biso   1.000  O
  O68      1.0000 0.51798  0.18494  0.50000  Biso   1.000  O
  O69      1.0000 0.66696  0.48202  0.50000  Biso   1.000  O
  O70      1.0000 0.18494  0.66696  0.50000  Biso   1.000  O
  O71      1.0000 0.48202  0.81506  0.50000  Biso   1.000  O
  O72      1.0000 0.33304  0.51798  0.50000  Biso   1.000  O
  O73      1.0000 0.90614  0.54482  0.00000  Biso   1.000  O
  O74      1.0000 0.45518  0.36132  0.00000  Biso   1.000  O
  O75      1.0000 0.63868  0.09386  0.00000  Biso   1.000  O
  O76      1.0000 0.09386  0.45518  0.00000  Biso   1.000  O
  O77      1.0000 0.54482  0.63868  0.00000  Biso   1.000  O
  O78      1.0000 0.36132  0.90614  0.00000  Biso   1.000  O
  O79      1.0000 0.54482  0.90614  0.00000  Biso   1.000  O
  O80      1.0000 0.36132  0.45518  0.00000  Biso   1.000  O
  O81      1.0000 0.09386  0.63868  0.00000  Biso   1.000  O
  O82      1.0000 0.45518  0.09386  0.00000  Biso   1.000  O
  O83      1.0000 0.63868  0.54482  0.00000  Biso   1.000  O
  O84      1.0000 0.90614  0.36132  0.00000  Biso   1.000  O
  O85      1.0000 0.73724  0.47447  0.70927  Biso   1.000  O
  O86      1.0000 0.52553  0.26276  0.70927  Biso   1.000  O
  O87      1.0000 0.73724  0.26276  0.70927  Biso   1.000  O
  O88      1.0000 0.26276  0.52553  0.70927  Biso   1.000  O
  O89      1.0000 0.47447  0.73724  0.70927  Biso   1.000  O
  O90      1.0000 0.26276  0.73724  0.70927  Biso   1.000  O
  O91      1.0000 0.47447  0.73724  0.29073  Biso   1.000  O
  O92      1.0000 0.26276  0.52553  0.29073  Biso   1.000  O
  O93      1.0000 0.26276  0.73724  0.29073  Biso   1.000  O
  O94      1.0000 0.52553  0.26276  0.29073  Biso   1.000  O
  O95      1.0000 0.73724  0.47447  0.29073  Biso   1.000  O
  O96      1.0000 0.73724  0.26276  0.29073  Biso   1.000  O
  Ir1      1.0000 0.46928  0.66699  0.33755  Biso   1.000  Ir
  Ir2      1.0000 0.33301  0.80229  0.33755  Biso   1.000  Ir
  Ir3      1.0000 0.19771  0.53072  0.33755  Biso   1.000  Ir
  Ir4      1.0000 0.53072  0.33301  0.33755  Biso   1.000  Ir
  Ir5      1.0000 0.66699  0.19771  0.33755  Biso   1.000  Ir
  Ir6      1.0000 0.80229  0.46928  0.33755  Biso   1.000  Ir
  Ir7      1.0000 0.66699  0.46928  0.66245  Biso   1.000  Ir
  Ir8      1.0000 0.80229  0.33301  0.66245  Biso   1.000  Ir
  Ir9      1.0000 0.53072  0.19771  0.66245  Biso   1.000  Ir
  Ir10     1.0000 0.33301  0.53072  0.66245  Biso   1.000  Ir
  Ir11     1.0000 0.19771  0.66699  0.66245  Biso   1.000  Ir
  Ir12     1.0000 0.46928  0.80229  0.66245  Biso   1.000  Ir
  Ir13     1.0000 0.53072  0.33301  0.66245  Biso   1.000  Ir
  Ir14     1.0000 0.66699  0.19771  0.66245  Biso   1.000  Ir
  Ir15     1.0000 0.80229  0.46928  0.66245  Biso   1.000  Ir
  Ir16     1.0000 0.46928  0.66699  0.66245  Biso   1.000  Ir
  Ir17     1.0000 0.33301  0.80229  0.66245  Biso   1.000  Ir
  Ir18     1.0000 0.19771  0.53072  0.66245  Biso   1.000  Ir
  Ir19     1.0000 0.33301  0.53072  0.33755  Biso   1.000  Ir
  Ir20     1.0000 0.19771  0.66699  0.33755  Biso   1.000  Ir
  Ir21     1.0000 0.46928  0.80229  0.33755  Biso   1.000  Ir
  Ir22     1.0000 0.66699  0.46928  0.33755  Biso   1.000  Ir
  Ir23     1.0000 0.80229  0.33301  0.33755  Biso   1.000  Ir
  Ir24     1.0000 0.53072  0.19771  0.33755  Biso   1.000  Ir
  Ir25     1.0000 0.92547  0.39213  0.15409  Biso   1.000  Ir
  Ir26     1.0000 0.60788  0.53334  0.15409  Biso   1.000  Ir
  Ir27     1.0000 0.46666  0.07453  0.15409  Biso   1.000  Ir
  Ir28     1.0000 0.07453  0.60788  0.15409  Biso   1.000  Ir
  Ir29     1.0000 0.39212  0.46666  0.15409  Biso   1.000  Ir
  Ir30     1.0000 0.53334  0.92547  0.15409  Biso   1.000  Ir
  Ir31     1.0000 0.39213  0.92547  0.84591  Biso   1.000  Ir
  Ir32     1.0000 0.53334  0.60788  0.84591  Biso   1.000  Ir
  Ir33     1.0000 0.07453  0.46666  0.84591  Biso   1.000  Ir
  Ir34     1.0000 0.60788  0.07453  0.84591  Biso   1.000  Ir
  Ir35     1.0000 0.46666  0.39213  0.84591  Biso   1.000  Ir
  Ir36     1.0000 0.92547  0.53334  0.84591  Biso   1.000  Ir
  Ir37     1.0000 0.07453  0.60788  0.84591  Biso   1.000  Ir
  Ir38     1.0000 0.39212  0.46666  0.84591  Biso   1.000  Ir
  Ir39     1.0000 0.53334  0.92547  0.84591  Biso   1.000  Ir
  Ir40     1.0000 0.92547  0.39213  0.84591  Biso   1.000  Ir
  Ir41     1.0000 0.60788  0.53334  0.84591  Biso   1.000  Ir
  Ir42     1.0000 0.46666  0.07453  0.84591  Biso   1.000  Ir
  Ir43     1.0000 0.60788  0.07453  0.15409  Biso   1.000  Ir
  Ir44     1.0000 0.46666  0.39213  0.15409  Biso   1.000  Ir
  Ir45     1.0000 0.92547  0.53334  0.15409  Biso   1.000  Ir
  Ir46     1.0000 0.39213  0.92547  0.15409  Biso   1.000  Ir
  Ir47     1.0000 0.53334  0.60788  0.15409  Biso   1.000  Ir
  Ir48     1.0000 0.07453  0.46666  0.15409  Biso   1.000  Ir
