data_image0
_cell_length_a       5.41806
_cell_length_b       5.41806
_cell_length_c       127.154
_cell_angle_alpha    90
_cell_angle_beta     90
_cell_angle_gamma    120

_symmetry_space_group_name_H-M    "P 1"
_symmetry_int_tables_number       1

loop_
  _symmetry_equiv_pos_as_xyz
  'x, y, z'

loop_
  _atom_site_label
  _atom_site_occupancy
  _atom_site_fract_x
  _atom_site_fract_y
  _atom_site_fract_z
  _atom_site_thermal_displace_type
  _atom_site_B_iso_or_equiv
  _atom_site_type_symbol
  Ir1      1.0000 0.00000  0.00000  0.60297  Biso   1.000  Ir
  Ir2      1.0000 0.00000  0.00000  0.72057  Biso   1.000  Ir
  Ir3      1.0000 0.33333  0.66667  0.36767  Biso   1.000  Ir
  Ir4      1.0000 0.00000  0.00000  0.48528  Biso   1.000  Ir
  Ir5      1.0000 0.00000  0.00000  0.95586  Biso   1.000  Ir
  Ir6      1.0000 0.00000  0.00000  0.54415  Biso   1.000  Ir
  Ir7      1.0000 0.00000  0.00000  0.89704  Biso   1.000  Ir
  Ir8      1.0000 0.00000  0.00000  0.30881  Biso   1.000  Ir
  Ir9      1.0000 0.33333  0.66667  0.25001  Biso   1.000  Ir
  Ir10     1.0000 0.00000  0.00000  0.83823  Biso   1.000  Ir
  Ir11     1.0000 0.00000  0.00000  0.42647  Biso   1.000  Ir
  Ir12     1.0000 0.00000  0.00000  0.66177  Biso   1.000  Ir
  Ir13     1.0000 0.33333  0.66667  0.01472  Biso   1.000  Ir
  Ir14     1.0000 0.33333  0.66667  0.13236  Biso   1.000  Ir
  Ir15     1.0000 0.00000  0.00000  0.07352  Biso   1.000  Ir
  Ir16     1.0000 0.00000  0.00000  0.77940  Biso   1.000  Ir
  Ir17     1.0000 0.00000  0.00000  0.19118  Biso   1.000  Ir
  O1       1.0000 0.66667  0.33333  0.32238  Biso   1.000  O
  O2       1.0000 0.66667  0.33333  0.44003  Biso   1.000  O
  O3       1.0000 0.66667  0.33333  0.55771  Biso   1.000  O
  O4       1.0000 0.33333  0.66667  0.47171  Biso   1.000  O
  O5       1.0000 0.33333  0.66667  0.58939  Biso   1.000  O
  O6       1.0000 0.33333  0.66667  0.88347  Biso   1.000  O
  O7       1.0000 0.66667  0.33333  0.14593  Biso   1.000  O
  O8       1.0000 0.33333  0.66667  0.17761  Biso   1.000  O
  O9       1.0000 0.33333  0.66667  0.64821  Biso   1.000  O
  O10      1.0000 0.00000  0.00000  0.23645  Biso   1.000  O
  O11      1.0000 0.66667  0.33333  0.20474  Biso   1.000  O
  O12      1.0000 0.66667  0.33333  0.67533  Biso   1.000  O
  O13      1.0000 0.00000  0.00000  0.11880  Biso   1.000  O
  O14      1.0000 0.66667  0.33333  0.38123  Biso   1.000  O
  O15      1.0000 0.33333  0.66667  0.41290  Biso   1.000  O
  O16      1.0000 0.33333  0.66667  0.05996  Biso   1.000  O
  O17      1.0000 0.33333  0.66667  0.94230  Biso   1.000  O
  O18      1.0000 0.66667  0.33333  0.02829  Biso   1.000  O
  O19      1.0000 0.00000  0.00000  0.00116  Biso   1.000  O
  O20      1.0000 0.33333  0.66667  0.53058  Biso   1.000  O
  O21      1.0000 0.00000  0.00000  0.35411  Biso   1.000  O
  O22      1.0000 0.66667  0.33333  0.61653  Biso   1.000  O
  O23      1.0000 0.33333  0.66667  0.70701  Biso   1.000  O
  O24      1.0000 0.66667  0.33333  0.91061  Biso   1.000  O
  O25      1.0000 0.66667  0.33333  0.08709  Biso   1.000  O
  O26      1.0000 0.66667  0.33333  0.79297  Biso   1.000  O
  O27      1.0000 0.33333  0.66667  0.29525  Biso   1.000  O
  O28      1.0000 0.33333  0.66667  0.82467  Biso   1.000  O
  O29      1.0000 0.66667  0.33333  0.96943  Biso   1.000  O
  O30      1.0000 0.33333  0.66667  0.76585  Biso   1.000  O
  O31      1.0000 0.66667  0.33333  0.73412  Biso   1.000  O
  O32      1.0000 0.66667  0.33333  0.26357  Biso   1.000  O
  O33      1.0000 0.66667  0.33333  0.85178  Biso   1.000  O
  O34      1.0000 0.66667  0.33333  0.49884  Biso   1.000  O
