data_image0
_cell_length_a       5.36513
_cell_length_b       5.36513
_cell_length_c       62.7304
_cell_angle_alpha    90
_cell_angle_beta     90
_cell_angle_gamma    120

_symmetry_space_group_name_H-M    "P 1"
_symmetry_int_tables_number       1

loop_
  _symmetry_equiv_pos_as_xyz
  'x, y, z'

loop_
  _atom_site_label
  _atom_site_occupancy
  _atom_site_fract_x
  _atom_site_fract_y
  _atom_site_fract_z
  _atom_site_thermal_displace_type
  _atom_site_B_iso_or_equiv
  _atom_site_type_symbol
  Ir1      1.0000 0.00000  0.00000  0.02576  Biso   1.000  Ir
  Ir2      1.0000 0.66667  0.33333  0.13632  Biso   1.000  Ir
  Ir3      1.0000 0.00000  0.00000  0.24682  Biso   1.000  Ir
  Ir4      1.0000 0.66667  0.33333  0.35998  Biso   1.000  Ir
  Ir5      1.0000 0.00000  0.00000  0.47064  Biso   1.000  Ir
  Ir6      1.0000 0.33333  0.66667  0.58099  Biso   1.000  Ir
  Ir7      1.0000 0.00000  0.00000  0.69136  Biso   1.000  Ir
  Ir8      1.0000 0.33333  0.66667  0.80196  Biso   1.000  Ir
  Ir9      1.0000 0.00000  0.00000  0.91263  Biso   1.000  Ir
  O1       1.0000 0.66667  0.33333  0.05331  Biso   1.000  O
  O2       1.0000 0.33333  0.66667  0.10883  Biso   1.000  O
  O3       1.0000 0.00000  0.00000  0.16380  Biso   1.000  O
  O4       1.0000 0.33333  0.66667  0.21931  Biso   1.000  O
  O5       1.0000 0.66667  0.33333  0.27442  Biso   1.000  O
  O6       1.0000 0.33333  0.66667  0.33237  Biso   1.000  O
  O7       1.0000 0.00000  0.00000  0.38749  Biso   1.000  O
  O8       1.0000 0.33333  0.66667  0.44316  Biso   1.000  O
  O9       1.0000 0.66667  0.33333  0.49817  Biso   1.000  O
  O10      1.0000 0.00000  0.00000  0.55352  Biso   1.000  O
  O11      1.0000 0.66667  0.33333  0.60852  Biso   1.000  O
  O12      1.0000 0.33333  0.66667  0.66385  Biso   1.000  O
  O13      1.0000 0.66667  0.33333  0.71888  Biso   1.000  O
  O14      1.0000 0.00000  0.00000  0.77444  Biso   1.000  O
  O15      1.0000 0.66667  0.33333  0.82947  Biso   1.000  O
  O16      1.0000 0.33333  0.66667  0.88511  Biso   1.000  O
  O17      1.0000 0.66667  0.33333  0.94022  Biso   1.000  O
  O18      1.0000 0.33333  0.66667  0.99818  Biso   1.000  O
