data_image0
_cell_length_a       7.43174
_cell_length_b       4.29066
_cell_length_c       83.3444
_cell_angle_alpha    90
_cell_angle_beta     90.3358
_cell_angle_gamma    90

_symmetry_space_group_name_H-M    "P 1"
_symmetry_int_tables_number       1

loop_
  _symmetry_equiv_pos_as_xyz
  'x, y, z'

loop_
  _atom_site_label
  _atom_site_occupancy
  _atom_site_fract_x
  _atom_site_fract_y
  _atom_site_fract_z
  _atom_site_thermal_displace_type
  _atom_site_B_iso_or_equiv
  _atom_site_type_symbol
  Ir1      1.0000 0.00000  0.00000  0.50000  Biso   1.000  Ir
  Ir2      1.0000 0.16668  0.50000  0.58335  Biso   1.000  Ir
  Ir3      1.0000 0.33333  0.00000  0.41665  Biso   1.000  Ir
  Ir4      1.0000 0.16668  0.50000  0.66666  Biso   1.000  Ir
  Ir5      1.0000 0.33333  0.00000  0.33334  Biso   1.000  Ir
  Ir6      1.0000 0.16665  0.50000  0.74999  Biso   1.000  Ir
  Ir7      1.0000 0.33335  0.00000  0.25001  Biso   1.000  Ir
  Ir8      1.0000 0.33333  0.00000  0.83334  Biso   1.000  Ir
  Ir9      1.0000 0.16668  0.50000  0.16666  Biso   1.000  Ir
  Ir10     1.0000 0.00000  0.00000  0.91667  Biso   1.000  Ir
  Ir11     1.0000 0.00000  0.00000  0.08333  Biso   1.000  Ir
  Ir12     1.0000 0.00000  0.00000  0.00000  Biso   1.000  Ir
  Ir13     1.0000 0.50000  0.50000  0.50000  Biso   1.000  Ir
  Ir14     1.0000 0.66668  0.00000  0.58335  Biso   1.000  Ir
  Ir15     1.0000 0.83333  0.50000  0.41665  Biso   1.000  Ir
  Ir16     1.0000 0.66668  0.00000  0.66666  Biso   1.000  Ir
  Ir17     1.0000 0.83333  0.50000  0.33334  Biso   1.000  Ir
  Ir18     1.0000 0.66665  0.00000  0.74999  Biso   1.000  Ir
  Ir19     1.0000 0.83335  0.50000  0.25001  Biso   1.000  Ir
  Ir20     1.0000 0.83333  0.50000  0.83334  Biso   1.000  Ir
  Ir21     1.0000 0.66668  0.00000  0.16666  Biso   1.000  Ir
  Ir22     1.0000 0.50000  0.50000  0.91667  Biso   1.000  Ir
  Ir23     1.0000 0.50000  0.50000  0.08333  Biso   1.000  Ir
  Ir24     1.0000 0.50000  0.50000  0.00000  Biso   1.000  Ir
  O1       1.0000 0.16669  0.50000  0.52074  Biso   1.000  O
  O2       1.0000 0.33331  0.00000  0.47926  Biso   1.000  O
  O3       1.0000 0.33331  0.00000  0.56259  Biso   1.000  O
  O4       1.0000 0.16669  0.50000  0.43741  Biso   1.000  O
  O5       1.0000 0.00000  0.00000  0.60408  Biso   1.000  O
  O6       1.0000 0.00000  0.00000  0.39592  Biso   1.000  O
  O7       1.0000 0.33331  0.00000  0.64592  Biso   1.000  O
  O8       1.0000 0.16669  0.50000  0.35408  Biso   1.000  O
  O9       1.0000 0.00000  0.00000  0.68741  Biso   1.000  O
  O10      1.0000 0.00000  0.00000  0.31259  Biso   1.000  O
  O11      1.0000 0.33333  0.00000  0.72926  Biso   1.000  O
  O12      1.0000 0.16668  0.50000  0.27074  Biso   1.000  O
  O13      1.0000 0.00000  0.00000  0.77075  Biso   1.000  O
  O14      1.0000 0.00000  0.00000  0.22925  Biso   1.000  O
  O15      1.0000 0.16664  0.50000  0.81260  Biso   1.000  O
  O16      1.0000 0.33336  0.00000  0.18740  Biso   1.000  O
  O17      1.0000 0.00000  0.00000  0.85408  Biso   1.000  O
  O18      1.0000 0.00000  0.00000  0.14592  Biso   1.000  O
  O19      1.0000 0.16664  0.50000  0.89592  Biso   1.000  O
  O20      1.0000 0.33336  0.00000  0.10408  Biso   1.000  O
  O21      1.0000 0.33333  0.00000  0.93741  Biso   1.000  O
  O22      1.0000 0.16667  0.50000  0.06260  Biso   1.000  O
  O23      1.0000 0.16664  0.50000  0.97925  Biso   1.000  O
  O24      1.0000 0.33336  0.00000  0.02075  Biso   1.000  O
  O25      1.0000 0.66669  0.00000  0.52074  Biso   1.000  O
  O26      1.0000 0.83331  0.50000  0.47926  Biso   1.000  O
  O27      1.0000 0.83331  0.50000  0.56259  Biso   1.000  O
  O28      1.0000 0.66669  0.00000  0.43741  Biso   1.000  O
  O29      1.0000 0.50000  0.50000  0.60408  Biso   1.000  O
  O30      1.0000 0.50000  0.50000  0.39592  Biso   1.000  O
  O31      1.0000 0.83331  0.50000  0.64592  Biso   1.000  O
  O32      1.0000 0.66669  0.00000  0.35408  Biso   1.000  O
  O33      1.0000 0.50000  0.50000  0.68741  Biso   1.000  O
  O34      1.0000 0.50000  0.50000  0.31259  Biso   1.000  O
  O35      1.0000 0.83333  0.50000  0.72926  Biso   1.000  O
  O36      1.0000 0.66668  0.00000  0.27074  Biso   1.000  O
  O37      1.0000 0.50000  0.50000  0.77075  Biso   1.000  O
  O38      1.0000 0.50000  0.50000  0.22925  Biso   1.000  O
  O39      1.0000 0.66664  0.00000  0.81260  Biso   1.000  O
  O40      1.0000 0.83336  0.50000  0.18740  Biso   1.000  O
  O41      1.0000 0.50000  0.50000  0.85408  Biso   1.000  O
  O42      1.0000 0.50000  0.50000  0.14592  Biso   1.000  O
  O43      1.0000 0.66664  0.00000  0.89592  Biso   1.000  O
  O44      1.0000 0.83336  0.50000  0.10408  Biso   1.000  O
  O45      1.0000 0.83333  0.50000  0.93741  Biso   1.000  O
  O46      1.0000 0.66667  0.00000  0.06260  Biso   1.000  O
  O47      1.0000 0.66664  0.00000  0.97925  Biso   1.000  O
  O48      1.0000 0.83336  0.50000  0.02075  Biso   1.000  O
