data_image0
_cell_length_a       5.36166
_cell_length_b       5.36166
_cell_length_c       62.2725
_cell_angle_alpha    90
_cell_angle_beta     90
_cell_angle_gamma    120

_symmetry_space_group_name_H-M    "P 1"
_symmetry_int_tables_number       1

loop_
  _symmetry_equiv_pos_as_xyz
  'x, y, z'

loop_
  _atom_site_label
  _atom_site_occupancy
  _atom_site_fract_x
  _atom_site_fract_y
  _atom_site_fract_z
  _atom_site_thermal_displace_type
  _atom_site_B_iso_or_equiv
  _atom_site_type_symbol
  Ir1      1.0000 0.00000  0.00000  0.00000  Biso   1.000  Ir
  Ir2      1.0000 0.33333  0.66667  0.11111  Biso   1.000  Ir
  Ir3      1.0000 0.33333  0.66667  0.22222  Biso   1.000  Ir
  Ir4      1.0000 0.66667  0.33333  0.33333  Biso   1.000  Ir
  Ir5      1.0000 0.00000  0.00000  0.44444  Biso   1.000  Ir
  Ir6      1.0000 0.00000  0.00000  0.55556  Biso   1.000  Ir
  Ir7      1.0000 0.33333  0.66667  0.66667  Biso   1.000  Ir
  Ir8      1.0000 0.66667  0.33333  0.77778  Biso   1.000  Ir
  Ir9      1.0000 0.66667  0.33333  0.88889  Biso   1.000  Ir
  O1       1.0000 0.33333  0.66667  0.02787  Biso   1.000  O
  O2       1.0000 0.33333  0.66667  0.30547  Biso   1.000  O
  O3       1.0000 0.66667  0.33333  0.08324  Biso   1.000  O
  O4       1.0000 0.00000  0.00000  0.25009  Biso   1.000  O
  O5       1.0000 0.00000  0.00000  0.13898  Biso   1.000  O
  O6       1.0000 0.66667  0.33333  0.19435  Biso   1.000  O
  O7       1.0000 0.00000  0.00000  0.36120  Biso   1.000  O
  O8       1.0000 0.00000  0.00000  0.63880  Biso   1.000  O
  O9       1.0000 0.33333  0.66667  0.41657  Biso   1.000  O
  O10      1.0000 0.66667  0.33333  0.58342  Biso   1.000  O
  O11      1.0000 0.66667  0.33333  0.47231  Biso   1.000  O
  O12      1.0000 0.33333  0.66667  0.52769  Biso   1.000  O
  O13      1.0000 0.66667  0.33333  0.69453  Biso   1.000  O
  O14      1.0000 0.66667  0.33333  0.97213  Biso   1.000  O
  O15      1.0000 0.00000  0.00000  0.74991  Biso   1.000  O
  O16      1.0000 0.33333  0.66667  0.91676  Biso   1.000  O
  O17      1.0000 0.33333  0.66667  0.80564  Biso   1.000  O
  O18      1.0000 0.00000  0.00000  0.86102  Biso   1.000  O
