data_image0
_cell_length_a       6.39544
_cell_length_b       27.4832
_cell_length_c       17.0408
_cell_angle_alpha    90
_cell_angle_beta     90
_cell_angle_gamma    90

_symmetry_space_group_name_H-M    "P 1"
_symmetry_int_tables_number       1

loop_
  _symmetry_equiv_pos_as_xyz
  'x, y, z'

loop_
  _atom_site_label
  _atom_site_occupancy
  _atom_site_fract_x
  _atom_site_fract_y
  _atom_site_fract_z
  _atom_site_thermal_displace_type
  _atom_site_B_iso_or_equiv
  _atom_site_type_symbol
  O1       1.0000 0.00000  0.44212  0.21107  Biso   1.000  O
  O2       1.0000 0.00000  0.55788  0.21107  Biso   1.000  O
  O3       1.0000 0.50000  0.94212  0.78892  Biso   1.000  O
  O4       1.0000 0.50000  0.05788  0.78892  Biso   1.000  O
  O5       1.0000 0.74996  0.00000  0.92255  Biso   1.000  O
  O6       1.0000 0.25004  0.00000  0.92255  Biso   1.000  O
  O7       1.0000 0.75004  0.50000  0.07745  Biso   1.000  O
  O8       1.0000 0.24996  0.50000  0.07745  Biso   1.000  O
  O9       1.0000 0.00000  0.05807  0.05575  Biso   1.000  O
  O10      1.0000 0.00000  0.94193  0.05575  Biso   1.000  O
  O11      1.0000 0.50000  0.55807  0.94425  Biso   1.000  O
  O12      1.0000 0.50000  0.44193  0.94425  Biso   1.000  O
  O13      1.0000 0.00000  0.64086  0.34126  Biso   1.000  O
  O14      1.0000 0.00000  0.35914  0.34126  Biso   1.000  O
  O15      1.0000 0.50000  0.14086  0.65874  Biso   1.000  O
  O16      1.0000 0.50000  0.85914  0.65874  Biso   1.000  O
  O17      1.0000 0.75032  0.65749  0.18012  Biso   1.000  O
  O18      1.0000 0.24968  0.34251  0.18012  Biso   1.000  O
  O19      1.0000 0.74968  0.15749  0.81988  Biso   1.000  O
  O20      1.0000 0.25032  0.84251  0.81988  Biso   1.000  O
  O21      1.0000 0.74968  0.84251  0.81988  Biso   1.000  O
  O22      1.0000 0.25032  0.15749  0.81988  Biso   1.000  O
  O23      1.0000 0.75032  0.34251  0.18012  Biso   1.000  O
  O24      1.0000 0.24968  0.65749  0.18012  Biso   1.000  O
  O25      1.0000 0.00000  0.68272  0.51770  Biso   1.000  O
  O26      1.0000 0.00000  0.31728  0.51770  Biso   1.000  O
  O27      1.0000 0.50000  0.18272  0.48230  Biso   1.000  O
  O28      1.0000 0.50000  0.81728  0.48230  Biso   1.000  O
  O29      1.0000 0.75016  0.73832  0.37970  Biso   1.000  O
  O30      1.0000 0.24984  0.26168  0.37970  Biso   1.000  O
  O31      1.0000 0.74984  0.23832  0.62030  Biso   1.000  O
  O32      1.0000 0.25016  0.76168  0.62030  Biso   1.000  O
  O33      1.0000 0.74984  0.76168  0.62030  Biso   1.000  O
  O34      1.0000 0.25016  0.23832  0.62030  Biso   1.000  O
  O35      1.0000 0.75016  0.26168  0.37970  Biso   1.000  O
  O36      1.0000 0.24984  0.73832  0.37970  Biso   1.000  O
  O37      1.0000 0.00000  0.83350  0.98158  Biso   1.000  O
  O38      1.0000 0.00000  0.16650  0.98158  Biso   1.000  O
  O39      1.0000 0.50000  0.33350  0.01842  Biso   1.000  O
  O40      1.0000 0.50000  0.66650  0.01842  Biso   1.000  O
  O41      1.0000 0.25011  0.85641  0.14030  Biso   1.000  O
  O42      1.0000 0.74989  0.14359  0.14030  Biso   1.000  O
  O43      1.0000 0.24989  0.35641  0.85969  Biso   1.000  O
  O44      1.0000 0.75011  0.64359  0.85969  Biso   1.000  O
  O45      1.0000 0.24989  0.64359  0.85969  Biso   1.000  O
  O46      1.0000 0.75011  0.35641  0.85969  Biso   1.000  O
  O47      1.0000 0.25011  0.14359  0.14030  Biso   1.000  O
  O48      1.0000 0.74989  0.85641  0.14030  Biso   1.000  O
  O49      1.0000 0.00000  0.32352  0.70651  Biso   1.000  O
  O50      1.0000 0.00000  0.67647  0.70651  Biso   1.000  O
  O51      1.0000 0.50000  0.82352  0.29349  Biso   1.000  O
  O52      1.0000 0.50000  0.17647  0.29349  Biso   1.000  O
  O53      1.0000 0.00000  0.25507  0.86125  Biso   1.000  O
  O54      1.0000 0.00000  0.74493  0.86125  Biso   1.000  O
  O55      1.0000 0.50000  0.75507  0.13875  Biso   1.000  O
  O56      1.0000 0.50000  0.24493  0.13875  Biso   1.000  O
  Ir1      1.0000 0.00000  0.50000  0.14361  Biso   1.000  Ir
  Ir2      1.0000 0.50000  0.00000  0.85639  Biso   1.000  Ir
  Ir3      1.0000 0.00000  0.00000  0.98903  Biso   1.000  Ir
  Ir4      1.0000 0.50000  0.50000  0.01097  Biso   1.000  Ir
  Ir5      1.0000 0.00000  0.62837  0.22714  Biso   1.000  Ir
  Ir6      1.0000 0.00000  0.37163  0.22714  Biso   1.000  Ir
  Ir7      1.0000 0.50000  0.12837  0.77286  Biso   1.000  Ir
  Ir8      1.0000 0.50000  0.87163  0.77286  Biso   1.000  Ir
  Ir9      1.0000 0.00000  0.70020  0.40544  Biso   1.000  Ir
  Ir10     1.0000 0.00000  0.29980  0.40544  Biso   1.000  Ir
  Ir11     1.0000 0.50000  0.20020  0.59456  Biso   1.000  Ir
  Ir12     1.0000 0.50000  0.79980  0.59456  Biso   1.000  Ir
  Ir13     1.0000 0.00000  0.87197  0.07877  Biso   1.000  Ir
  Ir14     1.0000 0.00000  0.12803  0.07877  Biso   1.000  Ir
  Ir15     1.0000 0.50000  0.37197  0.92123  Biso   1.000  Ir
  Ir16     1.0000 0.50000  0.62803  0.92123  Biso   1.000  Ir
  Ir17     1.0000 0.00000  0.27947  0.61623  Biso   1.000  Ir
  Ir18     1.0000 0.00000  0.72053  0.61623  Biso   1.000  Ir
  Ir19     1.0000 0.50000  0.77947  0.38377  Biso   1.000  Ir
  Ir20     1.0000 0.50000  0.22053  0.38377  Biso   1.000  Ir
  Ir21     1.0000 0.00000  0.32245  0.82245  Biso   1.000  Ir
  Ir22     1.0000 0.00000  0.67755  0.82245  Biso   1.000  Ir
  Ir23     1.0000 0.50000  0.82245  0.17755  Biso   1.000  Ir
  Ir24     1.0000 0.50000  0.17755  0.17755  Biso   1.000  Ir
  Ir25     1.0000 0.00000  0.18406  0.87026  Biso   1.000  Ir
  Ir26     1.0000 0.00000  0.81594  0.87026  Biso   1.000  Ir
  Ir27     1.0000 0.50000  0.68406  0.12974  Biso   1.000  Ir
  Ir28     1.0000 0.50000  0.31594  0.12974  Biso   1.000  Ir
