data_image0
_cell_length_a       4.7349
_cell_length_b       5.76344
_cell_length_c       15.9763
_cell_angle_alpha    90
_cell_angle_beta     90
_cell_angle_gamma    90

_symmetry_space_group_name_H-M    "P 1"
_symmetry_int_tables_number       1

loop_
  _symmetry_equiv_pos_as_xyz
  'x, y, z'

loop_
  _atom_site_label
  _atom_site_occupancy
  _atom_site_fract_x
  _atom_site_fract_y
  _atom_site_fract_z
  _atom_site_thermal_displace_type
  _atom_site_B_iso_or_equiv
  _atom_site_type_symbol
  O1       1.0000 0.28848  0.62243  0.52880  Biso   1.000  O
  O2       1.0000 0.21152  0.87757  0.02880  Biso   1.000  O
  O3       1.0000 0.71152  0.62243  0.97120  Biso   1.000  O
  O4       1.0000 0.78848  0.87757  0.47120  Biso   1.000  O
  O5       1.0000 0.71152  0.37757  0.47120  Biso   1.000  O
  O6       1.0000 0.78848  0.12243  0.97120  Biso   1.000  O
  O7       1.0000 0.28848  0.37757  0.02880  Biso   1.000  O
  O8       1.0000 0.21152  0.12243  0.52880  Biso   1.000  O
  O9       1.0000 0.78360  0.57077  0.63855  Biso   1.000  O
  O10      1.0000 0.71640  0.92923  0.13855  Biso   1.000  O
  O11      1.0000 0.21640  0.57077  0.86145  Biso   1.000  O
  O12      1.0000 0.28360  0.92923  0.36145  Biso   1.000  O
  O13      1.0000 0.21640  0.42923  0.36145  Biso   1.000  O
  O14      1.0000 0.28360  0.07077  0.86145  Biso   1.000  O
  O15      1.0000 0.78360  0.42923  0.13855  Biso   1.000  O
  O16      1.0000 0.71640  0.07077  0.63855  Biso   1.000  O
  O17      1.0000 0.22921  0.79606  0.69434  Biso   1.000  O
  O18      1.0000 0.27080  0.70394  0.19434  Biso   1.000  O
  O19      1.0000 0.77080  0.79606  0.80566  Biso   1.000  O
  O20      1.0000 0.72920  0.70394  0.30566  Biso   1.000  O
  O21      1.0000 0.77080  0.20394  0.30566  Biso   1.000  O
  O22      1.0000 0.72920  0.29606  0.80566  Biso   1.000  O
  O23      1.0000 0.22921  0.20394  0.19434  Biso   1.000  O
  O24      1.0000 0.27080  0.29606  0.69434  Biso   1.000  O
  Ir1      1.0000 0.00266  0.84545  0.58413  Biso   1.000  Ir
  Ir2      1.0000 0.49734  0.65455  0.08413  Biso   1.000  Ir
  Ir3      1.0000 0.99734  0.84545  0.91587  Biso   1.000  Ir
  Ir4      1.0000 0.50266  0.65455  0.41587  Biso   1.000  Ir
  Ir5      1.0000 0.99734  0.15455  0.41587  Biso   1.000  Ir
  Ir6      1.0000 0.50266  0.34545  0.91587  Biso   1.000  Ir
  Ir7      1.0000 0.00266  0.15455  0.08413  Biso   1.000  Ir
  Ir8      1.0000 0.49734  0.34545  0.58413  Biso   1.000  Ir
  Ir9      1.0000 0.00000  0.47676  0.25000  Biso   1.000  Ir
  Ir10     1.0000 0.50000  0.02324  0.75000  Biso   1.000  Ir
  Ir11     1.0000 0.00000  0.52324  0.75000  Biso   1.000  Ir
  Ir12     1.0000 0.50000  0.97676  0.25000  Biso   1.000  Ir
