data_image0
_cell_length_a       5.41293
_cell_length_b       5.41294
_cell_length_c       37.053
_cell_angle_alpha    90
_cell_angle_beta     90
_cell_angle_gamma    120

_symmetry_space_group_name_H-M    "P 1"
_symmetry_int_tables_number       1

loop_
  _symmetry_equiv_pos_as_xyz
  'x, y, z'

loop_
  _atom_site_label
  _atom_site_occupancy
  _atom_site_fract_x
  _atom_site_fract_y
  _atom_site_fract_z
  _atom_site_thermal_displace_type
  _atom_site_B_iso_or_equiv
  _atom_site_type_symbol
  Ir1      1.0000 0.33333  0.66667  0.19998  Biso   1.000  Ir
  Ir2      1.0000 0.66667  0.33333  0.80002  Biso   1.000  Ir
  Ir3      1.0000 0.00000  0.00000  0.40001  Biso   1.000  Ir
  Ir4      1.0000 0.00000  0.00000  0.59999  Biso   1.000  Ir
  Ir5      1.0000 0.00000  0.00000  0.00000  Biso   1.000  Ir
  O1       1.0000 0.33333  0.66667  0.04669  Biso   1.000  O
  O2       1.0000 0.66667  0.33333  0.95331  Biso   1.000  O
  O3       1.0000 0.33333  0.66667  0.84669  Biso   1.000  O
  O4       1.0000 0.66667  0.33333  0.15331  Biso   1.000  O
  O5       1.0000 0.33333  0.66667  0.44668  Biso   1.000  O
  O6       1.0000 0.66667  0.33333  0.55332  Biso   1.000  O
  O7       1.0000 0.33333  0.66667  0.64663  Biso   1.000  O
  O8       1.0000 0.66667  0.33333  0.35336  Biso   1.000  O
  O9       1.0000 0.00000  0.00000  0.75340  Biso   1.000  O
  O10      1.0000 0.00000  0.00000  0.24660  Biso   1.000  O
