data_image0
_cell_length_a       5.4159
_cell_length_b       5.41589
_cell_length_c       67.4211
_cell_angle_alpha    90
_cell_angle_beta     90
_cell_angle_gamma    120

_symmetry_space_group_name_H-M    "P 1"
_symmetry_int_tables_number       1

loop_
  _symmetry_equiv_pos_as_xyz
  'x, y, z'

loop_
  _atom_site_label
  _atom_site_occupancy
  _atom_site_fract_x
  _atom_site_fract_y
  _atom_site_fract_z
  _atom_site_thermal_displace_type
  _atom_site_B_iso_or_equiv
  _atom_site_type_symbol
  Ir1      1.0000 0.00000  0.00000  0.80556  Biso   1.000  Ir
  Ir2      1.0000 0.33333  0.66667  0.36108  Biso   1.000  Ir
  Ir3      1.0000 0.00000  0.00000  0.69443  Biso   1.000  Ir
  Ir4      1.0000 0.00000  0.00000  0.91664  Biso   1.000  Ir
  Ir5      1.0000 0.66667  0.33333  0.58331  Biso   1.000  Ir
  Ir6      1.0000 0.66667  0.33333  0.02782  Biso   1.000  Ir
  Ir7      1.0000 0.00000  0.00000  0.13890  Biso   1.000  Ir
  Ir8      1.0000 0.66667  0.33333  0.47224  Biso   1.000  Ir
  Ir9      1.0000 0.66667  0.33333  0.25003  Biso   1.000  Ir
  O1       1.0000 0.00000  0.00000  0.22443  Biso   1.000  O
  O2       1.0000 0.00000  0.00000  0.55771  Biso   1.000  O
  O3       1.0000 0.00000  0.00000  0.44662  Biso   1.000  O
  O4       1.0000 0.33333  0.66667  0.27565  Biso   1.000  O
  O5       1.0000 0.33333  0.66667  0.05342  Biso   1.000  O
  O6       1.0000 0.33333  0.66667  0.60893  Biso   1.000  O
  O7       1.0000 0.66667  0.33333  0.89103  Biso   1.000  O
  O8       1.0000 0.66667  0.33333  0.77994  Biso   1.000  O
  O9       1.0000 0.33333  0.66667  0.94223  Biso   1.000  O
  O10      1.0000 0.66667  0.33333  0.11332  Biso   1.000  O
  O11      1.0000 0.00000  0.00000  0.00221  Biso   1.000  O
  O12      1.0000 0.33333  0.66667  0.16449  Biso   1.000  O
  O13      1.0000 0.66667  0.33333  0.38668  Biso   1.000  O
  O14      1.0000 0.00000  0.00000  0.33548  Biso   1.000  O
  O15      1.0000 0.33333  0.66667  0.83118  Biso   1.000  O
  O16      1.0000 0.66667  0.33333  0.66881  Biso   1.000  O
  O17      1.0000 0.33333  0.66667  0.49784  Biso   1.000  O
  O18      1.0000 0.33333  0.66667  0.72004  Biso   1.000  O
