data_image0
_cell_length_a       5.42187
_cell_length_b       5.42187
_cell_length_c       125.807
_cell_angle_alpha    90
_cell_angle_beta     90
_cell_angle_gamma    120

_symmetry_space_group_name_H-M    "P 1"
_symmetry_int_tables_number       1

loop_
  _symmetry_equiv_pos_as_xyz
  'x, y, z'

loop_
  _atom_site_label
  _atom_site_occupancy
  _atom_site_fract_x
  _atom_site_fract_y
  _atom_site_fract_z
  _atom_site_thermal_displace_type
  _atom_site_B_iso_or_equiv
  _atom_site_type_symbol
  Ir1      1.0000 0.66667  0.33333  0.76564  Biso   1.000  Ir
  Ir2      1.0000 0.66667  0.33333  0.14060  Biso   1.000  Ir
  Ir3      1.0000 0.66667  0.33333  0.01563  Biso   1.000  Ir
  Ir4      1.0000 0.33333  0.66667  0.32812  Biso   1.000  Ir
  Ir5      1.0000 0.33333  0.66667  0.70316  Biso   1.000  Ir
  Ir6      1.0000 0.33333  0.66667  0.57812  Biso   1.000  Ir
  Ir7      1.0000 0.66667  0.33333  0.26564  Biso   1.000  Ir
  Ir8      1.0000 0.33333  0.66667  0.45305  Biso   1.000  Ir
  Ir9      1.0000 0.66667  0.33333  0.64059  Biso   1.000  Ir
  Ir10     1.0000 0.66667  0.33333  0.82814  Biso   1.000  Ir
  Ir11     1.0000 0.66667  0.33333  0.39069  Biso   1.000  Ir
  Ir12     1.0000 0.66667  0.33333  0.51563  Biso   1.000  Ir
  Ir13     1.0000 0.33333  0.66667  0.20317  Biso   1.000  Ir
  Ir14     1.0000 0.33333  0.66667  0.07811  Biso   1.000  Ir
  Ir15     1.0000 0.33333  0.66667  0.89063  Biso   1.000  Ir
  Ir16     1.0000 0.66667  0.33333  0.95311  Biso   1.000  Ir
  O1       1.0000 0.66667  0.33333  0.87698  Biso   1.000  O
  O2       1.0000 0.00000  0.00000  0.02929  Biso   1.000  O
  O3       1.0000 0.00000  0.00000  0.27930  Biso   1.000  O
  O4       1.0000 0.00000  0.00000  0.52929  Biso   1.000  O
  O5       1.0000 0.66667  0.33333  0.18948  Biso   1.000  O
  O6       1.0000 0.33333  0.66667  0.37704  Biso   1.000  O
  O7       1.0000 0.33333  0.66667  0.93946  Biso   1.000  O
  O8       1.0000 0.00000  0.00000  0.15429  Biso   1.000  O
  O9       1.0000 0.00000  0.00000  0.65428  Biso   1.000  O
  O10      1.0000 0.00000  0.00000  0.09175  Biso   1.000  O
  O11      1.0000 0.00000  0.00000  0.71681  Biso   1.000  O
  O12      1.0000 0.66667  0.33333  0.31437  Biso   1.000  O
  O13      1.0000 0.00000  0.00000  0.46673  Biso   1.000  O
  O14      1.0000 0.66667  0.33333  0.68949  Biso   1.000  O
  O15      1.0000 0.66667  0.33333  0.06446  Biso   1.000  O
  O16      1.0000 0.00000  0.00000  0.90429  Biso   1.000  O
  O17      1.0000 0.33333  0.66667  0.25199  Biso   1.000  O
  O18      1.0000 0.33333  0.66667  0.50198  Biso   1.000  O
  O19      1.0000 0.66667  0.33333  0.56448  Biso   1.000  O
  O20      1.0000 0.00000  0.00000  0.77930  Biso   1.000  O
  O21      1.0000 0.33333  0.66667  0.75199  Biso   1.000  O
  O22      1.0000 0.33333  0.66667  0.12690  Biso   1.000  O
  O23      1.0000 0.33333  0.66667  0.81446  Biso   1.000  O
  O24      1.0000 0.00000  0.00000  0.40434  Biso   1.000  O
  O25      1.0000 0.00000  0.00000  0.21685  Biso   1.000  O
  O26      1.0000 0.33333  0.66667  0.00198  Biso   1.000  O
  O27      1.0000 0.00000  0.00000  0.96675  Biso   1.000  O
  O28      1.0000 0.66667  0.33333  0.43937  Biso   1.000  O
  O29      1.0000 0.00000  0.00000  0.84181  Biso   1.000  O
  O30      1.0000 0.33333  0.66667  0.62693  Biso   1.000  O
  O31      1.0000 0.00000  0.00000  0.59176  Biso   1.000  O
  O32      1.0000 0.00000  0.00000  0.34184  Biso   1.000  O
