data_image0
_cell_length_a       5.3623
_cell_length_b       5.3623
_cell_length_c       125.513
_cell_angle_alpha    90
_cell_angle_beta     90
_cell_angle_gamma    120

_symmetry_space_group_name_H-M    "P 1"
_symmetry_int_tables_number       1

loop_
  _symmetry_equiv_pos_as_xyz
  'x, y, z'

loop_
  _atom_site_label
  _atom_site_occupancy
  _atom_site_fract_x
  _atom_site_fract_y
  _atom_site_fract_z
  _atom_site_thermal_displace_type
  _atom_site_B_iso_or_equiv
  _atom_site_type_symbol
  Ir1      1.0000 0.66667  0.33333  0.01390  Biso   1.000  Ir
  Ir2      1.0000 0.66667  0.33333  0.06944  Biso   1.000  Ir
  Ir3      1.0000 0.66667  0.33333  0.12498  Biso   1.000  Ir
  Ir4      1.0000 0.00000  0.00000  0.18054  Biso   1.000  Ir
  Ir5      1.0000 0.66667  0.33333  0.23610  Biso   1.000  Ir
  Ir6      1.0000 0.00000  0.00000  0.29167  Biso   1.000  Ir
  Ir7      1.0000 0.33333  0.66667  0.34723  Biso   1.000  Ir
  Ir8      1.0000 0.33333  0.66667  0.40277  Biso   1.000  Ir
  Ir9      1.0000 0.33333  0.66667  0.45832  Biso   1.000  Ir
  Ir10     1.0000 0.66667  0.33333  0.51388  Biso   1.000  Ir
  Ir11     1.0000 0.33333  0.66667  0.56943  Biso   1.000  Ir
  Ir12     1.0000 0.66667  0.33333  0.62500  Biso   1.000  Ir
  Ir13     1.0000 0.00000  0.00000  0.68057  Biso   1.000  Ir
  Ir14     1.0000 0.00000  0.00000  0.73611  Biso   1.000  Ir
  Ir15     1.0000 0.00000  0.00000  0.79165  Biso   1.000  Ir
  Ir16     1.0000 0.33333  0.66667  0.84721  Biso   1.000  Ir
  Ir17     1.0000 0.00000  0.00000  0.90276  Biso   1.000  Ir
  Ir18     1.0000 0.33333  0.66667  0.95834  Biso   1.000  Ir
  O1       1.0000 0.00000  0.00000  0.00014  Biso   1.000  O
  O2       1.0000 0.33333  0.66667  0.02764  Biso   1.000  O
  O3       1.0000 0.00000  0.00000  0.05568  Biso   1.000  O
  O4       1.0000 0.33333  0.66667  0.08319  Biso   1.000  O
  O5       1.0000 0.00000  0.00000  0.11124  Biso   1.000  O
  O6       1.0000 0.33333  0.66667  0.13875  Biso   1.000  O
  O7       1.0000 0.66667  0.33333  0.16681  Biso   1.000  O
  O8       1.0000 0.33333  0.66667  0.19430  Biso   1.000  O
  O9       1.0000 0.00000  0.00000  0.22236  Biso   1.000  O
  O10      1.0000 0.33333  0.66667  0.24985  Biso   1.000  O
  O11      1.0000 0.66667  0.33333  0.27792  Biso   1.000  O
  O12      1.0000 0.33333  0.66667  0.30541  Biso   1.000  O
  O13      1.0000 0.66667  0.33333  0.33347  Biso   1.000  O
  O14      1.0000 0.00000  0.00000  0.36098  Biso   1.000  O
  O15      1.0000 0.66667  0.33333  0.38902  Biso   1.000  O
  O16      1.0000 0.00000  0.00000  0.41652  Biso   1.000  O
  O17      1.0000 0.66667  0.33333  0.44457  Biso   1.000  O
  O18      1.0000 0.00000  0.00000  0.47208  Biso   1.000  O
  O19      1.0000 0.33333  0.66667  0.50014  Biso   1.000  O
  O20      1.0000 0.00000  0.00000  0.52763  Biso   1.000  O
  O21      1.0000 0.66667  0.33333  0.55570  Biso   1.000  O
  O22      1.0000 0.00000  0.00000  0.58319  Biso   1.000  O
  O23      1.0000 0.33333  0.66667  0.61126  Biso   1.000  O
  O24      1.0000 0.00000  0.00000  0.63875  Biso   1.000  O
  O25      1.0000 0.33333  0.66667  0.66681  Biso   1.000  O
  O26      1.0000 0.66667  0.33333  0.69431  Biso   1.000  O
  O27      1.0000 0.33333  0.66667  0.72235  Biso   1.000  O
  O28      1.0000 0.66667  0.33333  0.74986  Biso   1.000  O
  O29      1.0000 0.33333  0.66667  0.77791  Biso   1.000  O
  O30      1.0000 0.66667  0.33333  0.80541  Biso   1.000  O
  O31      1.0000 0.00000  0.00000  0.83347  Biso   1.000  O
  O32      1.0000 0.66667  0.33333  0.86097  Biso   1.000  O
  O33      1.0000 0.33333  0.66667  0.88903  Biso   1.000  O
  O34      1.0000 0.66667  0.33333  0.91652  Biso   1.000  O
  O35      1.0000 0.00000  0.00000  0.94459  Biso   1.000  O
  O36      1.0000 0.66667  0.33333  0.97208  Biso   1.000  O
