data_image0
_cell_length_a       10.23
_cell_length_b       10.23
_cell_length_c       7.45053
_cell_angle_alpha    90
_cell_angle_beta     90
_cell_angle_gamma    120

_symmetry_space_group_name_H-M    "P 1"
_symmetry_int_tables_number       1

loop_
  _symmetry_equiv_pos_as_xyz
  'x, y, z'

loop_
  _atom_site_label
  _atom_site_occupancy
  _atom_site_fract_x
  _atom_site_fract_y
  _atom_site_fract_z
  _atom_site_thermal_displace_type
  _atom_site_B_iso_or_equiv
  _atom_site_type_symbol
  O1       1.0000 0.50000  0.00000  0.00000  Biso   1.000  O
  O2       1.0000 0.00000  0.50000  0.00000  Biso   1.000  O
  O3       1.0000 0.50000  0.50000  0.00000  Biso   1.000  O
  O4       1.0000 0.00000  0.50000  0.50000  Biso   1.000  O
  O5       1.0000 0.50000  0.00000  0.50000  Biso   1.000  O
  O6       1.0000 0.50000  0.50000  0.50000  Biso   1.000  O
  O7       1.0000 0.30581  0.14367  0.09087  Biso   1.000  O
  O8       1.0000 0.85633  0.16215  0.09087  Biso   1.000  O
  O9       1.0000 0.83785  0.69419  0.09087  Biso   1.000  O
  O10      1.0000 0.85633  0.69419  0.40913  Biso   1.000  O
  O11      1.0000 0.83785  0.14367  0.40913  Biso   1.000  O
  O12      1.0000 0.30581  0.16215  0.40913  Biso   1.000  O
  O13      1.0000 0.69419  0.85633  0.90913  Biso   1.000  O
  O14      1.0000 0.14367  0.83785  0.90913  Biso   1.000  O
  O15      1.0000 0.16215  0.30581  0.90913  Biso   1.000  O
  O16      1.0000 0.14367  0.30581  0.59087  Biso   1.000  O
  O17      1.0000 0.16215  0.85633  0.59087  Biso   1.000  O
  O18      1.0000 0.69419  0.83785  0.59087  Biso   1.000  O
  O19      1.0000 0.20269  0.79731  0.25000  Biso   1.000  O
  O20      1.0000 0.20269  0.40538  0.25000  Biso   1.000  O
  O21      1.0000 0.59462  0.79731  0.25000  Biso   1.000  O
  O22      1.0000 0.79731  0.20269  0.75000  Biso   1.000  O
  O23      1.0000 0.79731  0.59462  0.75000  Biso   1.000  O
  O24      1.0000 0.40538  0.20269  0.75000  Biso   1.000  O
  Ir1      1.0000 0.06106  0.35059  0.07343  Biso   1.000  Ir
  Ir2      1.0000 0.64941  0.71047  0.07343  Biso   1.000  Ir
  Ir3      1.0000 0.28953  0.93894  0.07343  Biso   1.000  Ir
  Ir4      1.0000 0.64941  0.93894  0.42657  Biso   1.000  Ir
  Ir5      1.0000 0.28953  0.35059  0.42657  Biso   1.000  Ir
  Ir6      1.0000 0.06106  0.71047  0.42657  Biso   1.000  Ir
  Ir7      1.0000 0.93894  0.64941  0.92657  Biso   1.000  Ir
  Ir8      1.0000 0.35059  0.28953  0.92657  Biso   1.000  Ir
  Ir9      1.0000 0.71047  0.06106  0.92657  Biso   1.000  Ir
  Ir10     1.0000 0.35060  0.06106  0.57343  Biso   1.000  Ir
  Ir11     1.0000 0.71047  0.64941  0.57343  Biso   1.000  Ir
  Ir12     1.0000 0.93894  0.28953  0.57343  Biso   1.000  Ir
