data_image0
_cell_length_a       6.39249
_cell_length_b       26.7172
_cell_length_c       13.8065
_cell_angle_alpha    90
_cell_angle_beta     90
_cell_angle_gamma    90

_symmetry_space_group_name_H-M    "P 1"
_symmetry_int_tables_number       1

loop_
  _symmetry_equiv_pos_as_xyz
  'x, y, z'

loop_
  _atom_site_label
  _atom_site_occupancy
  _atom_site_fract_x
  _atom_site_fract_y
  _atom_site_fract_z
  _atom_site_thermal_displace_type
  _atom_site_B_iso_or_equiv
  _atom_site_type_symbol
  O1       1.0000 0.75037  0.50000  0.61312  Biso   1.000  O
  O2       1.0000 0.24963  0.50000  0.61312  Biso   1.000  O
  O3       1.0000 0.74963  0.00000  0.38688  Biso   1.000  O
  O4       1.0000 0.25037  0.00000  0.38688  Biso   1.000  O
  O5       1.0000 0.24973  0.86294  0.68108  Biso   1.000  O
  O6       1.0000 0.75027  0.13706  0.68108  Biso   1.000  O
  O7       1.0000 0.25027  0.36294  0.31892  Biso   1.000  O
  O8       1.0000 0.74973  0.63706  0.31892  Biso   1.000  O
  O9       1.0000 0.25027  0.63706  0.31892  Biso   1.000  O
  O10      1.0000 0.74973  0.36294  0.31892  Biso   1.000  O
  O11      1.0000 0.24973  0.13706  0.68108  Biso   1.000  O
  O12      1.0000 0.75027  0.86294  0.68108  Biso   1.000  O
  O13      1.0000 0.25000  0.75000  0.00000  Biso   1.000  O
  O14      1.0000 0.75000  0.25000  0.00000  Biso   1.000  O
  O15      1.0000 0.25000  0.25000  0.00000  Biso   1.000  O
  O16      1.0000 0.75000  0.75000  0.00000  Biso   1.000  O
  O17      1.0000 0.00000  0.82170  0.49539  Biso   1.000  O
  O18      1.0000 0.00000  0.17830  0.49539  Biso   1.000  O
  O19      1.0000 0.50000  0.32170  0.50461  Biso   1.000  O
  O20      1.0000 0.50000  0.67830  0.50461  Biso   1.000  O
  O21      1.0000 0.25053  0.15556  0.29953  Biso   1.000  O
  O22      1.0000 0.74947  0.84444  0.29953  Biso   1.000  O
  O23      1.0000 0.24947  0.65556  0.70047  Biso   1.000  O
  O24      1.0000 0.75053  0.34444  0.70047  Biso   1.000  O
  O25      1.0000 0.24947  0.34444  0.70047  Biso   1.000  O
  O26      1.0000 0.75053  0.65556  0.70047  Biso   1.000  O
  O27      1.0000 0.25053  0.84444  0.29953  Biso   1.000  O
  O28      1.0000 0.74947  0.15556  0.29953  Biso   1.000  O
  O29      1.0000 0.00000  0.74126  0.32380  Biso   1.000  O
  O30      1.0000 0.00000  0.25874  0.32380  Biso   1.000  O
  O31      1.0000 0.50000  0.24126  0.67620  Biso   1.000  O
  O32      1.0000 0.50000  0.75874  0.67620  Biso   1.000  O
  O33      1.0000 0.00000  0.44045  0.77888  Biso   1.000  O
  O34      1.0000 0.00000  0.55955  0.77888  Biso   1.000  O
  O35      1.0000 0.50000  0.94045  0.22112  Biso   1.000  O
  O36      1.0000 0.50000  0.05955  0.22112  Biso   1.000  O
  O37      1.0000 0.00000  0.05973  0.55014  Biso   1.000  O
  O38      1.0000 0.00000  0.94027  0.55014  Biso   1.000  O
  O39      1.0000 0.50000  0.55973  0.44986  Biso   1.000  O
  O40      1.0000 0.50000  0.44027  0.44986  Biso   1.000  O
  O41      1.0000 0.00000  0.67141  0.13181  Biso   1.000  O
  O42      1.0000 0.00000  0.32859  0.13181  Biso   1.000  O
  O43      1.0000 0.50000  0.17141  0.86819  Biso   1.000  O
  O44      1.0000 0.50000  0.82859  0.86819  Biso   1.000  O
  O45      1.0000 0.00000  0.34101  0.90320  Biso   1.000  O
  O46      1.0000 0.00000  0.65899  0.90320  Biso   1.000  O
  O47      1.0000 0.50000  0.84101  0.09680  Biso   1.000  O
  O48      1.0000 0.50000  0.15899  0.09680  Biso   1.000  O
  Ir1      1.0000 0.00000  0.32764  0.27400  Biso   1.000  Ir
  Ir2      1.0000 0.00000  0.67236  0.27400  Biso   1.000  Ir
  Ir3      1.0000 0.50000  0.82764  0.72600  Biso   1.000  Ir
  Ir4      1.0000 0.50000  0.17237  0.72600  Biso   1.000  Ir
  Ir5      1.0000 0.00000  0.87188  0.60070  Biso   1.000  Ir
  Ir6      1.0000 0.00000  0.12813  0.60070  Biso   1.000  Ir
  Ir7      1.0000 0.50000  0.37188  0.39930  Biso   1.000  Ir
  Ir8      1.0000 0.50000  0.62813  0.39930  Biso   1.000  Ir
  Ir9      1.0000 0.00000  0.29207  0.00871  Biso   1.000  Ir
  Ir10     1.0000 0.00000  0.70793  0.00871  Biso   1.000  Ir
  Ir11     1.0000 0.50000  0.79207  0.99129  Biso   1.000  Ir
  Ir12     1.0000 0.50000  0.20793  0.99129  Biso   1.000  Ir
  Ir13     1.0000 0.00000  0.63304  0.77074  Biso   1.000  Ir
  Ir14     1.0000 0.00000  0.36696  0.77074  Biso   1.000  Ir
  Ir15     1.0000 0.50000  0.13304  0.22926  Biso   1.000  Ir
  Ir16     1.0000 0.50000  0.86696  0.22926  Biso   1.000  Ir
  Ir17     1.0000 0.00000  0.81279  0.35378  Biso   1.000  Ir
  Ir18     1.0000 0.00000  0.18721  0.35378  Biso   1.000  Ir
  Ir19     1.0000 0.50000  0.31279  0.64622  Biso   1.000  Ir
  Ir20     1.0000 0.50000  0.68721  0.64622  Biso   1.000  Ir
  Ir21     1.0000 0.00000  0.00000  0.46825  Biso   1.000  Ir
  Ir22     1.0000 0.50000  0.50000  0.53175  Biso   1.000  Ir
  Ir23     1.0000 0.00000  0.50000  0.69516  Biso   1.000  Ir
  Ir24     1.0000 0.50000  0.00000  0.30484  Biso   1.000  Ir
