data_image0
_cell_length_a       7.43998
_cell_length_b       4.29535
_cell_length_c       90.0477
_cell_angle_alpha    90
_cell_angle_beta     90.482
_cell_angle_gamma    90

_symmetry_space_group_name_H-M    "P 1"
_symmetry_int_tables_number       1

loop_
  _symmetry_equiv_pos_as_xyz
  'x, y, z'

loop_
  _atom_site_label
  _atom_site_occupancy
  _atom_site_fract_x
  _atom_site_fract_y
  _atom_site_fract_z
  _atom_site_thermal_displace_type
  _atom_site_B_iso_or_equiv
  _atom_site_type_symbol
  Ir1      1.0000 0.16668  0.50000  0.98077  Biso   1.000  Ir
  Ir2      1.0000 0.50000  0.50000  0.90390  Biso   1.000  Ir
  Ir3      1.0000 0.16668  0.50000  0.82693  Biso   1.000  Ir
  Ir4      1.0000 0.50000  0.50000  0.75001  Biso   1.000  Ir
  Ir5      1.0000 0.16669  0.50000  0.67308  Biso   1.000  Ir
  Ir6      1.0000 0.50000  0.50000  0.59615  Biso   1.000  Ir
  Ir7      1.0000 0.16668  0.50000  0.51930  Biso   1.000  Ir
  Ir8      1.0000 0.50000  0.50000  0.44239  Biso   1.000  Ir
  Ir9      1.0000 0.50000  0.50000  0.36537  Biso   1.000  Ir
  Ir10     1.0000 0.50000  0.50000  0.28838  Biso   1.000  Ir
  Ir11     1.0000 0.50000  0.50000  0.21149  Biso   1.000  Ir
  Ir12     1.0000 0.33332  0.00000  0.13462  Biso   1.000  Ir
  Ir13     1.0000 0.50000  0.50000  0.05769  Biso   1.000  Ir
  Ir14     1.0000 0.66668  0.00000  0.98077  Biso   1.000  Ir
  Ir15     1.0000 1.00000  0.00000  0.90390  Biso   1.000  Ir
  Ir16     1.0000 0.66668  0.00000  0.82693  Biso   1.000  Ir
  Ir17     1.0000 1.00000  0.00000  0.75001  Biso   1.000  Ir
  Ir18     1.0000 0.66669  0.00000  0.67308  Biso   1.000  Ir
  Ir19     1.0000 1.00000  0.00000  0.59615  Biso   1.000  Ir
  Ir20     1.0000 0.66668  0.00000  0.51930  Biso   1.000  Ir
  Ir21     1.0000 1.00000  0.00000  0.44239  Biso   1.000  Ir
  Ir22     1.0000 1.00000  0.00000  0.36537  Biso   1.000  Ir
  Ir23     1.0000 1.00000  0.00000  0.28838  Biso   1.000  Ir
  Ir24     1.0000 1.00000  0.00000  0.21149  Biso   1.000  Ir
  Ir25     1.0000 0.83332  0.50000  0.13462  Biso   1.000  Ir
  Ir26     1.0000 1.00000  0.00000  0.05769  Biso   1.000  Ir
  O1       1.0000 0.50000  0.50000  0.00000  Biso   1.000  O
  O2       1.0000 0.33331  0.00000  0.96157  Biso   1.000  O
  O3       1.0000 0.16669  0.50000  0.92309  Biso   1.000  O
  O4       1.0000 0.33330  0.00000  0.88466  Biso   1.000  O
  O5       1.0000 0.50000  0.50000  0.84612  Biso   1.000  O
  O6       1.0000 0.33331  0.00000  0.80771  Biso   1.000  O
  O7       1.0000 0.16669  0.50000  0.76920  Biso   1.000  O
  O8       1.0000 0.33330  0.00000  0.73079  Biso   1.000  O
  O9       1.0000 0.50000  0.50000  0.69229  Biso   1.000  O
  O10      1.0000 0.33332  0.00000  0.65387  Biso   1.000  O
  O11      1.0000 0.16669  0.50000  0.61536  Biso   1.000  O
  O12      1.0000 0.33330  0.00000  0.57695  Biso   1.000  O
  O13      1.0000 0.50000  0.50000  0.53839  Biso   1.000  O
  O14      1.0000 0.33331  0.00000  0.50000  Biso   1.000  O
  O15      1.0000 0.16669  0.50000  0.46147  Biso   1.000  O
  O16      1.0000 0.33330  0.00000  0.42307  Biso   1.000  O
  O17      1.0000 0.16669  0.50000  0.38458  Biso   1.000  O
  O18      1.0000 0.33331  0.00000  0.34619  Biso   1.000  O
  O19      1.0000 0.16669  0.50000  0.30770  Biso   1.000  O
  O20      1.0000 0.33330  0.00000  0.26930  Biso   1.000  O
  O21      1.0000 0.16669  0.50000  0.23077  Biso   1.000  O
  O22      1.0000 0.33330  0.00000  0.19237  Biso   1.000  O
  O23      1.0000 0.16669  0.50000  0.15383  Biso   1.000  O
  O24      1.0000 0.50000  0.50000  0.11541  Biso   1.000  O
  O25      1.0000 0.16670  0.50000  0.07690  Biso   1.000  O
  O26      1.0000 0.33330  0.00000  0.03848  Biso   1.000  O
  O27      1.0000 1.00000  0.00000  0.00000  Biso   1.000  O
  O28      1.0000 0.83331  0.50000  0.96157  Biso   1.000  O
  O29      1.0000 0.66669  0.00000  0.92309  Biso   1.000  O
  O30      1.0000 0.83330  0.50000  0.88466  Biso   1.000  O
  O31      1.0000 1.00000  0.00000  0.84612  Biso   1.000  O
  O32      1.0000 0.83331  0.50000  0.80771  Biso   1.000  O
  O33      1.0000 0.66669  0.00000  0.76920  Biso   1.000  O
  O34      1.0000 0.83330  0.50000  0.73079  Biso   1.000  O
  O35      1.0000 1.00000  0.00000  0.69229  Biso   1.000  O
  O36      1.0000 0.83332  0.50000  0.65387  Biso   1.000  O
  O37      1.0000 0.66669  0.00000  0.61536  Biso   1.000  O
  O38      1.0000 0.83330  0.50000  0.57695  Biso   1.000  O
  O39      1.0000 1.00000  0.00000  0.53839  Biso   1.000  O
  O40      1.0000 0.83331  0.50000  0.50000  Biso   1.000  O
  O41      1.0000 0.66669  0.00000  0.46147  Biso   1.000  O
  O42      1.0000 0.83330  0.50000  0.42307  Biso   1.000  O
  O43      1.0000 0.66669  0.00000  0.38458  Biso   1.000  O
  O44      1.0000 0.83330  0.50000  0.34619  Biso   1.000  O
  O45      1.0000 0.66669  0.00000  0.30770  Biso   1.000  O
  O46      1.0000 0.83330  0.50000  0.26930  Biso   1.000  O
  O47      1.0000 0.66669  0.00000  0.23077  Biso   1.000  O
  O48      1.0000 0.83330  0.50000  0.19237  Biso   1.000  O
  O49      1.0000 0.66669  0.00000  0.15383  Biso   1.000  O
  O50      1.0000 1.00000  0.00000  0.11541  Biso   1.000  O
  O51      1.0000 0.66670  0.00000  0.07690  Biso   1.000  O
  O52      1.0000 0.83330  0.50000  0.03848  Biso   1.000  O
