data_image0
_cell_length_a       12.049
_cell_length_b       17.1351
_cell_length_c       34.2618
_cell_angle_alpha    90
_cell_angle_beta     90
_cell_angle_gamma    90

_symmetry_space_group_name_H-M    "P 1"
_symmetry_int_tables_number       1

loop_
  _symmetry_equiv_pos_as_xyz
  'x, y, z'

loop_
  _atom_site_label
  _atom_site_occupancy
  _atom_site_fract_x
  _atom_site_fract_y
  _atom_site_fract_z
  _atom_site_thermal_displace_type
  _atom_site_B_iso_or_equiv
  _atom_site_type_symbol
  O1       1.0000 0.82122  0.92669  0.41470  Biso   1.000  O
  O2       1.0000 0.17878  0.07331  0.91470  Biso   1.000  O
  O3       1.0000 0.17878  0.92669  0.08530  Biso   1.000  O
  O4       1.0000 0.82122  0.07331  0.58530  Biso   1.000  O
  O5       1.0000 0.17878  0.07331  0.58530  Biso   1.000  O
  O6       1.0000 0.82122  0.92669  0.08530  Biso   1.000  O
  O7       1.0000 0.82122  0.07331  0.91470  Biso   1.000  O
  O8       1.0000 0.17878  0.92669  0.41470  Biso   1.000  O
  O9       1.0000 0.30053  0.25862  0.37521  Biso   1.000  O
  O10      1.0000 0.69947  0.74138  0.87521  Biso   1.000  O
  O11      1.0000 0.69947  0.25862  0.12479  Biso   1.000  O
  O12      1.0000 0.30053  0.74138  0.62479  Biso   1.000  O
  O13      1.0000 0.69947  0.74138  0.62479  Biso   1.000  O
  O14      1.0000 0.30053  0.25862  0.12479  Biso   1.000  O
  O15      1.0000 0.30053  0.74138  0.87521  Biso   1.000  O
  O16      1.0000 0.69947  0.25862  0.37521  Biso   1.000  O
  O17      1.0000 0.50000  0.37316  0.34980  Biso   1.000  O
  O18      1.0000 0.50000  0.62684  0.84979  Biso   1.000  O
  O19      1.0000 0.50000  0.37316  0.15020  Biso   1.000  O
  O20      1.0000 0.50000  0.62684  0.65021  Biso   1.000  O
  O21      1.0000 0.75072  0.91064  0.32431  Biso   1.000  O
  O22      1.0000 0.24928  0.08936  0.82431  Biso   1.000  O
  O23      1.0000 0.24928  0.91064  0.17569  Biso   1.000  O
  O24      1.0000 0.75072  0.08936  0.67568  Biso   1.000  O
  O25      1.0000 0.24928  0.08936  0.67568  Biso   1.000  O
  O26      1.0000 0.75072  0.91064  0.17569  Biso   1.000  O
  O27      1.0000 0.75072  0.08936  0.82431  Biso   1.000  O
  O28      1.0000 0.24928  0.91064  0.32431  Biso   1.000  O
  O29      1.0000 0.31932  0.09080  0.33519  Biso   1.000  O
  O30      1.0000 0.68068  0.90920  0.83519  Biso   1.000  O
  O31      1.0000 0.68068  0.09080  0.16481  Biso   1.000  O
  O32      1.0000 0.31932  0.90920  0.66481  Biso   1.000  O
  O33      1.0000 0.68068  0.90920  0.66481  Biso   1.000  O
  O34      1.0000 0.31932  0.09080  0.16481  Biso   1.000  O
  O35      1.0000 0.31932  0.90920  0.83519  Biso   1.000  O
  O36      1.0000 0.68068  0.09080  0.33519  Biso   1.000  O
  O37      1.0000 0.30528  0.01686  0.25000  Biso   1.000  O
  O38      1.0000 0.69472  0.98314  0.75000  Biso   1.000  O
  O39      1.0000 0.69472  0.01686  0.25000  Biso   1.000  O
  O40      1.0000 0.30528  0.98314  0.75000  Biso   1.000  O
  O41      1.0000 0.50000  0.96238  0.30863  Biso   1.000  O
  O42      1.0000 0.50000  0.03762  0.80863  Biso   1.000  O
  O43      1.0000 0.50000  0.96238  0.19137  Biso   1.000  O
  O44      1.0000 0.50000  0.03762  0.69137  Biso   1.000  O
  O45      1.0000 0.50000  0.55443  0.44399  Biso   1.000  O
  O46      1.0000 0.50000  0.44557  0.94399  Biso   1.000  O
  O47      1.0000 0.50000  0.55443  0.05601  Biso   1.000  O
  O48      1.0000 0.50000  0.44557  0.55601  Biso   1.000  O
  O49      1.0000 0.24989  0.10658  0.42570  Biso   1.000  O
  O50      1.0000 0.75011  0.89342  0.92570  Biso   1.000  O
  O51      1.0000 0.75011  0.10658  0.07430  Biso   1.000  O
  O52      1.0000 0.24989  0.89342  0.57430  Biso   1.000  O
  O53      1.0000 0.75011  0.89342  0.57430  Biso   1.000  O
  O54      1.0000 0.24989  0.10658  0.07430  Biso   1.000  O
  O55      1.0000 0.24989  0.89342  0.92570  Biso   1.000  O
  O56      1.0000 0.75011  0.10658  0.42570  Biso   1.000  O
  O57      1.0000 0.79917  0.00000  0.00000  Biso   1.000  O
  O58      1.0000 0.20083  0.00000  0.50000  Biso   1.000  O
  O59      1.0000 0.20083  0.00000  0.00000  Biso   1.000  O
  O60      1.0000 0.79917  0.00000  0.50000  Biso   1.000  O
  O61      1.0000 0.50000  0.14303  0.39991  Biso   1.000  O
  O62      1.0000 0.50000  0.85697  0.89991  Biso   1.000  O
  O63      1.0000 0.50000  0.14303  0.10009  Biso   1.000  O
  O64      1.0000 0.50000  0.85697  0.60009  Biso   1.000  O
  O65      1.0000 0.32122  0.42669  0.41470  Biso   1.000  O
  O66      1.0000 0.67878  0.57331  0.91470  Biso   1.000  O
  O67      1.0000 0.67878  0.42669  0.08530  Biso   1.000  O
  O68      1.0000 0.32122  0.57331  0.58530  Biso   1.000  O
  O69      1.0000 0.67878  0.57331  0.58530  Biso   1.000  O
  O70      1.0000 0.32122  0.42669  0.08530  Biso   1.000  O
  O71      1.0000 0.32122  0.57331  0.91470  Biso   1.000  O
  O72      1.0000 0.67878  0.42669  0.41470  Biso   1.000  O
  O73      1.0000 0.80053  0.75862  0.37521  Biso   1.000  O
  O74      1.0000 0.19947  0.24138  0.87521  Biso   1.000  O
  O75      1.0000 0.19947  0.75862  0.12479  Biso   1.000  O
  O76      1.0000 0.80053  0.24138  0.62479  Biso   1.000  O
  O77      1.0000 0.19947  0.24138  0.62479  Biso   1.000  O
  O78      1.0000 0.80053  0.75862  0.12479  Biso   1.000  O
  O79      1.0000 0.80053  0.24138  0.87521  Biso   1.000  O
  O80      1.0000 0.19947  0.75862  0.37521  Biso   1.000  O
  O81      1.0000 0.00000  0.87316  0.34980  Biso   1.000  O
  O82      1.0000 0.00000  0.12684  0.84979  Biso   1.000  O
  O83      1.0000 0.00000  0.87316  0.15020  Biso   1.000  O
  O84      1.0000 0.00000  0.12684  0.65021  Biso   1.000  O
  O85      1.0000 0.25072  0.41064  0.32431  Biso   1.000  O
  O86      1.0000 0.74928  0.58936  0.82431  Biso   1.000  O
  O87      1.0000 0.74928  0.41064  0.17569  Biso   1.000  O
  O88      1.0000 0.25072  0.58936  0.67568  Biso   1.000  O
  O89      1.0000 0.74928  0.58936  0.67568  Biso   1.000  O
  O90      1.0000 0.25072  0.41064  0.17569  Biso   1.000  O
  O91      1.0000 0.25072  0.58936  0.82431  Biso   1.000  O
  O92      1.0000 0.74928  0.41064  0.32431  Biso   1.000  O
  O93      1.0000 0.81932  0.59080  0.33519  Biso   1.000  O
  O94      1.0000 0.18068  0.40920  0.83519  Biso   1.000  O
  O95      1.0000 0.18068  0.59080  0.16481  Biso   1.000  O
  O96      1.0000 0.81932  0.40920  0.66481  Biso   1.000  O
  O97      1.0000 0.18068  0.40920  0.66481  Biso   1.000  O
  O98      1.0000 0.81932  0.59080  0.16481  Biso   1.000  O
  O99      1.0000 0.81932  0.40920  0.83519  Biso   1.000  O
  O100     1.0000 0.18068  0.59080  0.33519  Biso   1.000  O
  O101     1.0000 0.80528  0.51686  0.25000  Biso   1.000  O
  O102     1.0000 0.19472  0.48314  0.75000  Biso   1.000  O
  O103     1.0000 0.19472  0.51686  0.25000  Biso   1.000  O
  O104     1.0000 0.80528  0.48314  0.75000  Biso   1.000  O
  O105     1.0000 0.00000  0.46238  0.30863  Biso   1.000  O
  O106     1.0000 0.00000  0.53762  0.80863  Biso   1.000  O
  O107     1.0000 0.00000  0.46238  0.19137  Biso   1.000  O
  O108     1.0000 0.00000  0.53762  0.69137  Biso   1.000  O
  O109     1.0000 0.00000  0.05443  0.44399  Biso   1.000  O
  O110     1.0000 0.00000  0.94557  0.94399  Biso   1.000  O
  O111     1.0000 0.00000  0.05443  0.05601  Biso   1.000  O
  O112     1.0000 0.00000  0.94557  0.55601  Biso   1.000  O
  O113     1.0000 0.74989  0.60658  0.42570  Biso   1.000  O
  O114     1.0000 0.25011  0.39342  0.92570  Biso   1.000  O
  O115     1.0000 0.25011  0.60658  0.07430  Biso   1.000  O
  O116     1.0000 0.74989  0.39342  0.57430  Biso   1.000  O
  O117     1.0000 0.25011  0.39342  0.57430  Biso   1.000  O
  O118     1.0000 0.74989  0.60658  0.07430  Biso   1.000  O
  O119     1.0000 0.74989  0.39342  0.92570  Biso   1.000  O
  O120     1.0000 0.25011  0.60658  0.42570  Biso   1.000  O
  O121     1.0000 0.29917  0.50000  0.00000  Biso   1.000  O
  O122     1.0000 0.70083  0.50000  0.50000  Biso   1.000  O
  O123     1.0000 0.70083  0.50000  0.00000  Biso   1.000  O
  O124     1.0000 0.29917  0.50000  0.50000  Biso   1.000  O
  O125     1.0000 0.00000  0.64303  0.39991  Biso   1.000  O
  O126     1.0000 0.00000  0.35697  0.89991  Biso   1.000  O
  O127     1.0000 0.00000  0.64303  0.10009  Biso   1.000  O
  O128     1.0000 0.00000  0.35697  0.60009  Biso   1.000  O
  Ir1      1.0000 0.84342  0.86746  0.36616  Biso   1.000  Ir
  Ir2      1.0000 0.15658  0.13254  0.86616  Biso   1.000  Ir
  Ir3      1.0000 0.15658  0.86746  0.13384  Biso   1.000  Ir
  Ir4      1.0000 0.84342  0.13254  0.63384  Biso   1.000  Ir
  Ir5      1.0000 0.15658  0.13254  0.63384  Biso   1.000  Ir
  Ir6      1.0000 0.84342  0.86746  0.13384  Biso   1.000  Ir
  Ir7      1.0000 0.84342  0.13254  0.86616  Biso   1.000  Ir
  Ir8      1.0000 0.15658  0.86746  0.36616  Biso   1.000  Ir
  Ir9      1.0000 0.34356  0.99519  0.30470  Biso   1.000  Ir
  Ir10     1.0000 0.65644  0.00481  0.80470  Biso   1.000  Ir
  Ir11     1.0000 0.65644  0.99519  0.19530  Biso   1.000  Ir
  Ir12     1.0000 0.34356  0.00481  0.69530  Biso   1.000  Ir
  Ir13     1.0000 0.65644  0.00481  0.69530  Biso   1.000  Ir
  Ir14     1.0000 0.34356  0.99519  0.19530  Biso   1.000  Ir
  Ir15     1.0000 0.34356  0.00481  0.80470  Biso   1.000  Ir
  Ir16     1.0000 0.65644  0.99519  0.30470  Biso   1.000  Ir
  Ir17     1.0000 0.15690  0.02179  0.44597  Biso   1.000  Ir
  Ir18     1.0000 0.84310  0.97821  0.94597  Biso   1.000  Ir
  Ir19     1.0000 0.84310  0.02179  0.05403  Biso   1.000  Ir
  Ir20     1.0000 0.15690  0.97821  0.55403  Biso   1.000  Ir
  Ir21     1.0000 0.84310  0.97821  0.55403  Biso   1.000  Ir
  Ir22     1.0000 0.15690  0.02179  0.05403  Biso   1.000  Ir
  Ir23     1.0000 0.15690  0.97821  0.94597  Biso   1.000  Ir
  Ir24     1.0000 0.84310  0.02179  0.44597  Biso   1.000  Ir
  Ir25     1.0000 0.65706  0.14956  0.38397  Biso   1.000  Ir
  Ir26     1.0000 0.34294  0.85044  0.88397  Biso   1.000  Ir
  Ir27     1.0000 0.34294  0.14956  0.11603  Biso   1.000  Ir
  Ir28     1.0000 0.65706  0.85044  0.61603  Biso   1.000  Ir
  Ir29     1.0000 0.34294  0.85044  0.61603  Biso   1.000  Ir
  Ir30     1.0000 0.65706  0.14956  0.11603  Biso   1.000  Ir
  Ir31     1.0000 0.65706  0.85044  0.88397  Biso   1.000  Ir
  Ir32     1.0000 0.34294  0.14956  0.38397  Biso   1.000  Ir
  Ir33     1.0000 0.34342  0.36746  0.36616  Biso   1.000  Ir
  Ir34     1.0000 0.65658  0.63254  0.86616  Biso   1.000  Ir
  Ir35     1.0000 0.65658  0.36746  0.13384  Biso   1.000  Ir
  Ir36     1.0000 0.34342  0.63254  0.63384  Biso   1.000  Ir
  Ir37     1.0000 0.65658  0.63254  0.63384  Biso   1.000  Ir
  Ir38     1.0000 0.34342  0.36746  0.13384  Biso   1.000  Ir
  Ir39     1.0000 0.34342  0.63254  0.86616  Biso   1.000  Ir
  Ir40     1.0000 0.65658  0.36746  0.36616  Biso   1.000  Ir
  Ir41     1.0000 0.84356  0.49519  0.30470  Biso   1.000  Ir
  Ir42     1.0000 0.15644  0.50481  0.80470  Biso   1.000  Ir
  Ir43     1.0000 0.15644  0.49519  0.19530  Biso   1.000  Ir
  Ir44     1.0000 0.84356  0.50481  0.69530  Biso   1.000  Ir
  Ir45     1.0000 0.15644  0.50481  0.69530  Biso   1.000  Ir
  Ir46     1.0000 0.84356  0.49519  0.19530  Biso   1.000  Ir
  Ir47     1.0000 0.84356  0.50481  0.80470  Biso   1.000  Ir
  Ir48     1.0000 0.15644  0.49519  0.30470  Biso   1.000  Ir
  Ir49     1.0000 0.65690  0.52179  0.44597  Biso   1.000  Ir
  Ir50     1.0000 0.34310  0.47821  0.94597  Biso   1.000  Ir
  Ir51     1.0000 0.34310  0.52179  0.05403  Biso   1.000  Ir
  Ir52     1.0000 0.65690  0.47821  0.55403  Biso   1.000  Ir
  Ir53     1.0000 0.34310  0.47821  0.55403  Biso   1.000  Ir
  Ir54     1.0000 0.65690  0.52179  0.05403  Biso   1.000  Ir
  Ir55     1.0000 0.65690  0.47821  0.94597  Biso   1.000  Ir
  Ir56     1.0000 0.34310  0.52179  0.44597  Biso   1.000  Ir
  Ir57     1.0000 0.15706  0.64956  0.38397  Biso   1.000  Ir
  Ir58     1.0000 0.84294  0.35044  0.88397  Biso   1.000  Ir
  Ir59     1.0000 0.84294  0.64956  0.11603  Biso   1.000  Ir
  Ir60     1.0000 0.15706  0.35044  0.61603  Biso   1.000  Ir
  Ir61     1.0000 0.84294  0.35044  0.61603  Biso   1.000  Ir
  Ir62     1.0000 0.15706  0.64956  0.11603  Biso   1.000  Ir
  Ir63     1.0000 0.15706  0.35044  0.88397  Biso   1.000  Ir
  Ir64     1.0000 0.84294  0.64956  0.38397  Biso   1.000  Ir
