data_image0
_cell_length_a       7.35063
_cell_length_b       12.7307
_cell_length_c       12.0167
_cell_angle_alpha    90
_cell_angle_beta     90
_cell_angle_gamma    90

_symmetry_space_group_name_H-M    "P 1"
_symmetry_int_tables_number       1

loop_
  _symmetry_equiv_pos_as_xyz
  'x, y, z'

loop_
  _atom_site_label
  _atom_site_occupancy
  _atom_site_fract_x
  _atom_site_fract_y
  _atom_site_fract_z
  _atom_site_thermal_displace_type
  _atom_site_B_iso_or_equiv
  _atom_site_type_symbol
  O1       1.0000 0.00000  0.46657  0.98981  Biso   1.000  O
  O2       1.0000 0.00000  0.53344  0.48981  Biso   1.000  O
  O3       1.0000 0.00000  0.33335  0.79113  Biso   1.000  O
  O4       1.0000 0.00000  0.66665  0.29113  Biso   1.000  O
  O5       1.0000 0.80092  0.26690  0.51564  Biso   1.000  O
  O6       1.0000 0.19908  0.73310  0.01564  Biso   1.000  O
  O7       1.0000 0.80092  0.73310  0.01564  Biso   1.000  O
  O8       1.0000 0.19908  0.26690  0.51564  Biso   1.000  O
  O9       1.0000 0.50000  0.96657  0.98981  Biso   1.000  O
  O10      1.0000 0.50000  0.03344  0.48981  Biso   1.000  O
  O11      1.0000 0.50000  0.83335  0.79113  Biso   1.000  O
  O12      1.0000 0.50000  0.16665  0.29113  Biso   1.000  O
  O13      1.0000 0.30092  0.76690  0.51564  Biso   1.000  O
  O14      1.0000 0.69908  0.23310  0.01564  Biso   1.000  O
  O15      1.0000 0.30092  0.23310  0.01564  Biso   1.000  O
  O16      1.0000 0.69908  0.76690  0.51564  Biso   1.000  O
  Ir1      1.0000 0.00000  0.33101  0.94231  Biso   1.000  Ir
  Ir2      1.0000 0.00000  0.66899  0.44231  Biso   1.000  Ir
  Ir3      1.0000 0.00000  0.33583  0.56747  Biso   1.000  Ir
  Ir4      1.0000 0.00000  0.66417  0.06747  Biso   1.000  Ir
  Ir5      1.0000 0.50000  0.83101  0.94231  Biso   1.000  Ir
  Ir6      1.0000 0.50000  0.16899  0.44231  Biso   1.000  Ir
  Ir7      1.0000 0.50000  0.83583  0.56747  Biso   1.000  Ir
  Ir8      1.0000 0.50000  0.16417  0.06747  Biso   1.000  Ir
