data_image0
_cell_length_a       3.71899
_cell_length_b       3.93763
_cell_length_c       19.5051
_cell_angle_alpha    84.3956
_cell_angle_beta     85.1894
_cell_angle_gamma    66.91

_symmetry_space_group_name_H-M    "P 1"
_symmetry_int_tables_number       1

loop_
  _symmetry_equiv_pos_as_xyz
  'x, y, z'

loop_
  _atom_site_label
  _atom_site_occupancy
  _atom_site_fract_x
  _atom_site_fract_y
  _atom_site_fract_z
  _atom_site_thermal_displace_type
  _atom_site_B_iso_or_equiv
  _atom_site_type_symbol
  O1       1.0000 0.47102  0.21742  0.84750  Biso   1.000  O
  O2       1.0000 0.31231  0.41274  0.96729  Biso   1.000  O
  O3       1.0000 0.02927  0.31236  0.63602  Biso   1.000  O
  O4       1.0000 0.89731  0.46785  0.75017  Biso   1.000  O
  O5       1.0000 0.29530  0.85038  0.56790  Biso   1.000  O
  O6       1.0000 0.60914  0.05477  0.73348  Biso   1.000  O
  O7       1.0000 0.73261  0.07996  0.46466  Biso   1.000  O
  O8       1.0000 0.44235  0.66481  0.45605  Biso   1.000  O
  O9       1.0000 0.16528  0.39050  0.28573  Biso   1.000  O
  O10      1.0000 0.86231  0.91996  0.35104  Biso   1.000  O
  O11      1.0000 0.60909  0.60970  0.18403  Biso   1.000  O
  O12      1.0000 0.31776  0.19271  0.17068  Biso   1.000  O
  O13      1.0000 0.02063  0.95376  0.00410  Biso   1.000  O
  O14      1.0000 0.73806  0.46887  0.06540  Biso   1.000  O
  Ir1      1.0000 0.62553  0.81142  0.93659  Biso   1.000  Ir
  Ir2      1.0000 0.23245  0.74046  0.80097  Biso   1.000  Ir
  Ir3      1.0000 0.77331  0.81846  0.64499  Biso   1.000  Ir
  Ir4      1.0000 0.06551  0.35693  0.52045  Biso   1.000  Ir
  Ir5      1.0000 0.59861  0.44501  0.36407  Biso   1.000  Ir
  Ir6      1.0000 0.91876  0.92886  0.23822  Biso   1.000  Ir
  Ir7      1.0000 0.46921  0.98151  0.08217  Biso   1.000  Ir
