data_image0
_cell_length_a       7.72909
_cell_length_b       22.7696
_cell_length_c       5.62607
_cell_angle_alpha    90
_cell_angle_beta     106.511
_cell_angle_gamma    90

_symmetry_space_group_name_H-M    "P 1"
_symmetry_int_tables_number       1

loop_
  _symmetry_equiv_pos_as_xyz
  'x, y, z'

loop_
  _atom_site_label
  _atom_site_occupancy
  _atom_site_fract_x
  _atom_site_fract_y
  _atom_site_fract_z
  _atom_site_thermal_displace_type
  _atom_site_B_iso_or_equiv
  _atom_site_type_symbol
  Ir1      1.0000 0.24561  0.26256  0.00052  Biso   1.000  Ir
  Ir2      1.0000 0.24561  0.73744  0.50052  Biso   1.000  Ir
  Ir3      1.0000 0.63135  0.37530  0.24411  Biso   1.000  Ir
  Ir4      1.0000 0.63135  0.62470  0.74411  Biso   1.000  Ir
  Ir5      1.0000 0.14022  0.87455  0.24857  Biso   1.000  Ir
  Ir6      1.0000 0.14022  0.12545  0.74857  Biso   1.000  Ir
  Ir7      1.0000 0.49124  0.48756  0.49175  Biso   1.000  Ir
  Ir8      1.0000 0.49124  0.51244  0.99175  Biso   1.000  Ir
  Ir9      1.0000 0.00036  0.98774  0.49703  Biso   1.000  Ir
  Ir10     1.0000 0.00036  0.01226  0.99703  Biso   1.000  Ir
  Ir11     1.0000 0.74785  0.23769  0.49774  Biso   1.000  Ir
  Ir12     1.0000 0.74785  0.76231  0.99774  Biso   1.000  Ir
  O1       1.0000 0.62528  0.60397  0.05939  Biso   1.000  O
  O2       1.0000 0.62528  0.39603  0.55939  Biso   1.000  O
  O3       1.0000 0.14189  0.10321  0.06735  Biso   1.000  O
  O4       1.0000 0.14189  0.89679  0.56735  Biso   1.000  O
  O5       1.0000 0.25888  0.50473  0.12503  Biso   1.000  O
  O6       1.0000 0.25888  0.49527  0.62503  Biso   1.000  O
  O7       1.0000 0.76715  0.00228  0.12826  Biso   1.000  O
  O8       1.0000 0.76715  0.99772  0.62826  Biso   1.000  O
  O9       1.0000 0.77910  0.44943  0.14750  Biso   1.000  O
  O10      1.0000 0.77910  0.55057  0.64750  Biso   1.000  O
  O11      1.0000 0.28643  0.94856  0.14880  Biso   1.000  O
  O12      1.0000 0.28643  0.05144  0.64880  Biso   1.000  O
  O13      1.0000 0.87742  0.30158  0.34203  Biso   1.000  O
  O14      1.0000 0.87742  0.69842  0.84203  Biso   1.000  O
  O15      1.0000 0.38310  0.79983  0.34809  Biso   1.000  O
  O16      1.0000 0.38310  0.20017  0.84809  Biso   1.000  O
  O17      1.0000 0.88030  0.74691  0.36543  Biso   1.000  O
  O18      1.0000 0.88030  0.25309  0.86543  Biso   1.000  O
  O19      1.0000 0.38266  0.24567  0.36802  Biso   1.000  O
  O20      1.0000 0.38266  0.75433  0.86802  Biso   1.000  O
  O21      1.0000 0.82484  0.14742  0.42778  Biso   1.000  O
  O22      1.0000 0.82484  0.85258  0.92778  Biso   1.000  O
  O23      1.0000 0.30900  0.64577  0.43030  Biso   1.000  O
  O24      1.0000 0.30900  0.35424  0.93030  Biso   1.000  O
