data_image0
_cell_length_a       5.43289
_cell_length_b       5.43289
_cell_length_c       66.1258
_cell_angle_alpha    90
_cell_angle_beta     90
_cell_angle_gamma    120

_symmetry_space_group_name_H-M    "P 1"
_symmetry_int_tables_number       1

loop_
  _symmetry_equiv_pos_as_xyz
  'x, y, z'

loop_
  _atom_site_label
  _atom_site_occupancy
  _atom_site_fract_x
  _atom_site_fract_y
  _atom_site_fract_z
  _atom_site_thermal_displace_type
  _atom_site_B_iso_or_equiv
  _atom_site_type_symbol
  Ir1      1.0000 0.00000  0.00000  0.91666  Biso   1.000  Ir
  Ir2      1.0000 0.00000  0.00000  0.36110  Biso   1.000  Ir
  Ir3      1.0000 0.00000  0.00000  0.80558  Biso   1.000  Ir
  Ir4      1.0000 0.00000  0.00000  0.02778  Biso   1.000  Ir
  Ir5      1.0000 0.00000  0.00000  0.47224  Biso   1.000  Ir
  Ir6      1.0000 0.00000  0.00000  0.69443  Biso   1.000  Ir
  Ir7      1.0000 0.33333  0.66667  0.13892  Biso   1.000  Ir
  Ir8      1.0000 0.00000  0.00000  0.58332  Biso   1.000  Ir
  Ir9      1.0000 0.00000  0.00000  0.24999  Biso   1.000  Ir
  O1       1.0000 0.33333  0.66667  0.22389  Biso   1.000  O
  O2       1.0000 0.66667  0.33333  0.27610  Biso   1.000  O
  O3       1.0000 0.66667  0.33333  0.72055  Biso   1.000  O
  O4       1.0000 0.33333  0.66667  0.77947  Biso   1.000  O
  O5       1.0000 0.33333  0.66667  0.44614  Biso   1.000  O
  O6       1.0000 0.33333  0.66667  0.66834  Biso   1.000  O
  O7       1.0000 0.66667  0.33333  0.83169  Biso   1.000  O
  O8       1.0000 0.66667  0.33333  0.16502  Biso   1.000  O
  O9       1.0000 0.66667  0.33333  0.60942  Biso   1.000  O
  O10      1.0000 0.66667  0.33333  0.05389  Biso   1.000  O
  O11      1.0000 0.00000  0.00000  0.11284  Biso   1.000  O
  O12      1.0000 0.33333  0.66667  0.55722  Biso   1.000  O
  O13      1.0000 0.66667  0.33333  0.38719  Biso   1.000  O
  O14      1.0000 0.66667  0.33333  0.94276  Biso   1.000  O
  O15      1.0000 0.33333  0.66667  0.33500  Biso   1.000  O
  O16      1.0000 0.33333  0.66667  0.00170  Biso   1.000  O
  O17      1.0000 0.66667  0.33333  0.49835  Biso   1.000  O
  O18      1.0000 0.33333  0.66667  0.89055  Biso   1.000  O
