data_image0
_cell_length_a       9.17224
_cell_length_b       19.7488
_cell_length_c       6.39139
_cell_angle_alpha    90
_cell_angle_beta     90
_cell_angle_gamma    90

_symmetry_space_group_name_H-M    "P 1"
_symmetry_int_tables_number       1

loop_
  _symmetry_equiv_pos_as_xyz
  'x, y, z'

loop_
  _atom_site_label
  _atom_site_occupancy
  _atom_site_fract_x
  _atom_site_fract_y
  _atom_site_fract_z
  _atom_site_thermal_displace_type
  _atom_site_B_iso_or_equiv
  _atom_site_type_symbol
  O1       1.0000 0.25000  0.25000  0.00000  Biso   1.000  O
  O2       1.0000 0.25000  0.25000  0.50000  Biso   1.000  O
  O3       1.0000 0.75000  0.25000  0.50000  Biso   1.000  O
  O4       1.0000 0.75000  0.25000  0.00000  Biso   1.000  O
  O5       1.0000 0.82426  0.11392  0.25000  Biso   1.000  O
  O6       1.0000 0.67574  0.38608  0.75000  Biso   1.000  O
  O7       1.0000 0.17574  0.11392  0.25000  Biso   1.000  O
  O8       1.0000 0.32426  0.38608  0.75000  Biso   1.000  O
  O9       1.0000 0.50000  0.17062  0.25000  Biso   1.000  O
  O10      1.0000 0.00000  0.32938  0.75000  Biso   1.000  O
  O11      1.0000 0.00000  0.00000  0.00000  Biso   1.000  O
  O12      1.0000 0.00000  0.00000  0.50000  Biso   1.000  O
  O13      1.0000 0.75000  0.75000  0.00000  Biso   1.000  O
  O14      1.0000 0.75000  0.75000  0.50000  Biso   1.000  O
  O15      1.0000 0.25000  0.75000  0.50000  Biso   1.000  O
  O16      1.0000 0.25000  0.75000  0.00000  Biso   1.000  O
  O17      1.0000 0.32426  0.61392  0.25000  Biso   1.000  O
  O18      1.0000 0.17574  0.88608  0.75000  Biso   1.000  O
  O19      1.0000 0.67574  0.61392  0.25000  Biso   1.000  O
  O20      1.0000 0.82426  0.88608  0.75000  Biso   1.000  O
  O21      1.0000 0.00000  0.67062  0.25000  Biso   1.000  O
  O22      1.0000 0.50000  0.82938  0.75000  Biso   1.000  O
  O23      1.0000 0.50000  0.50000  0.00000  Biso   1.000  O
  O24      1.0000 0.50000  0.50000  0.50000  Biso   1.000  O
  Ir1      1.0000 0.70663  0.19645  0.25000  Biso   1.000  Ir
  Ir2      1.0000 0.79337  0.30355  0.75000  Biso   1.000  Ir
  Ir3      1.0000 0.29337  0.19645  0.25000  Biso   1.000  Ir
  Ir4      1.0000 0.20663  0.30355  0.75000  Biso   1.000  Ir
  Ir5      1.0000 0.00000  0.05700  0.25000  Biso   1.000  Ir
  Ir6      1.0000 0.50000  0.44300  0.75000  Biso   1.000  Ir
  Ir7      1.0000 0.20663  0.69645  0.25000  Biso   1.000  Ir
  Ir8      1.0000 0.29337  0.80355  0.75000  Biso   1.000  Ir
  Ir9      1.0000 0.79337  0.69645  0.25000  Biso   1.000  Ir
  Ir10     1.0000 0.70663  0.80355  0.75000  Biso   1.000  Ir
  Ir11     1.0000 0.50000  0.55700  0.25000  Biso   1.000  Ir
  Ir12     1.0000 0.00000  0.94300  0.75000  Biso   1.000  Ir
