data_image0
_cell_length_a       3.37187
_cell_length_b       4.65043
_cell_length_c       4.94504
_cell_angle_alpha    112.925
_cell_angle_beta     90.206
_cell_angle_gamma    90.0093

_symmetry_space_group_name_H-M    "P 1"
_symmetry_int_tables_number       1

loop_
  _symmetry_equiv_pos_as_xyz
  'x, y, z'

loop_
  _atom_site_label
  _atom_site_occupancy
  _atom_site_fract_x
  _atom_site_fract_y
  _atom_site_fract_z
  _atom_site_thermal_displace_type
  _atom_site_B_iso_or_equiv
  _atom_site_type_symbol
  O1       1.0000 0.51427  0.66669  0.33336  Biso   1.000  O
  O2       1.0000 0.48573  0.33331  0.66664  Biso   1.000  O
  Ir1      1.0000 0.00000  0.00000  0.00000  Biso   1.000  Ir
