data_image0
_cell_length_a       11.8974
_cell_length_b       31.2877
_cell_length_c       10.1509
_cell_angle_alpha    90
_cell_angle_beta     90
_cell_angle_gamma    90

_symmetry_space_group_name_H-M    "P 1"
_symmetry_int_tables_number       1

loop_
  _symmetry_equiv_pos_as_xyz
  'x, y, z'

loop_
  _atom_site_label
  _atom_site_occupancy
  _atom_site_fract_x
  _atom_site_fract_y
  _atom_site_fract_z
  _atom_site_thermal_displace_type
  _atom_site_B_iso_or_equiv
  _atom_site_type_symbol
  O1       1.0000 0.68036  0.65377  0.25000  Biso   1.000  O
  O2       1.0000 0.81964  0.84623  0.75000  Biso   1.000  O
  O3       1.0000 0.31964  0.65377  0.25000  Biso   1.000  O
  O4       1.0000 0.18036  0.84623  0.75000  Biso   1.000  O
  O5       1.0000 0.63410  0.85927  0.97629  Biso   1.000  O
  O6       1.0000 0.86590  0.64073  0.47629  Biso   1.000  O
  O7       1.0000 0.36590  0.85927  0.52371  Biso   1.000  O
  O8       1.0000 0.13410  0.64073  0.02371  Biso   1.000  O
  O9       1.0000 0.86590  0.64073  0.02371  Biso   1.000  O
  O10      1.0000 0.63410  0.85927  0.52371  Biso   1.000  O
  O11      1.0000 0.13410  0.64073  0.47629  Biso   1.000  O
  O12      1.0000 0.36590  0.85927  0.97629  Biso   1.000  O
  O13      1.0000 0.86428  0.80988  0.03990  Biso   1.000  O
  O14      1.0000 0.63572  0.69012  0.53990  Biso   1.000  O
  O15      1.0000 0.13573  0.80988  0.46010  Biso   1.000  O
  O16      1.0000 0.36428  0.69012  0.96010  Biso   1.000  O
  O17      1.0000 0.63572  0.69012  0.96010  Biso   1.000  O
  O18      1.0000 0.86428  0.80988  0.46010  Biso   1.000  O
  O19      1.0000 0.36428  0.69012  0.53990  Biso   1.000  O
  O20      1.0000 0.13573  0.80988  0.03990  Biso   1.000  O
  O21      1.0000 0.86449  0.91172  0.98858  Biso   1.000  O
  O22      1.0000 0.63551  0.58828  0.48858  Biso   1.000  O
  O23      1.0000 0.13551  0.91172  0.51142  Biso   1.000  O
  O24      1.0000 0.36449  0.58828  0.01142  Biso   1.000  O
  O25      1.0000 0.63551  0.58828  0.01142  Biso   1.000  O
  O26      1.0000 0.86449  0.91172  0.51142  Biso   1.000  O
  O27      1.0000 0.36449  0.58828  0.48858  Biso   1.000  O
  O28      1.0000 0.13551  0.91172  0.98858  Biso   1.000  O
  O29      1.0000 0.00000  0.00000  0.00000  Biso   1.000  O
  O30      1.0000 0.00000  0.00000  0.50000  Biso   1.000  O
  O31      1.0000 0.00000  0.93726  0.25000  Biso   1.000  O
  O32      1.0000 0.50000  0.56274  0.75000  Biso   1.000  O
  O33      1.0000 0.00000  0.75327  0.25000  Biso   1.000  O
  O34      1.0000 0.50000  0.74673  0.75000  Biso   1.000  O
  O35      1.0000 0.50000  0.77339  0.05505  Biso   1.000  O
  O36      1.0000 0.00000  0.72661  0.55505  Biso   1.000  O
  O37      1.0000 0.50000  0.77339  0.44495  Biso   1.000  O
  O38      1.0000 0.00000  0.72661  0.94495  Biso   1.000  O
  O39      1.0000 0.50000  0.85429  0.25000  Biso   1.000  O
  O40      1.0000 0.00000  0.64571  0.75000  Biso   1.000  O
  O41      1.0000 0.18036  0.15377  0.25000  Biso   1.000  O
  O42      1.0000 0.31964  0.34623  0.75000  Biso   1.000  O
  O43      1.0000 0.81964  0.15377  0.25000  Biso   1.000  O
  O44      1.0000 0.68036  0.34623  0.75000  Biso   1.000  O
  O45      1.0000 0.13410  0.35927  0.97629  Biso   1.000  O
  O46      1.0000 0.36590  0.14073  0.47629  Biso   1.000  O
  O47      1.0000 0.86590  0.35927  0.52371  Biso   1.000  O
  O48      1.0000 0.63410  0.14073  0.02371  Biso   1.000  O
  O49      1.0000 0.36590  0.14073  0.02371  Biso   1.000  O
  O50      1.0000 0.13410  0.35927  0.52371  Biso   1.000  O
  O51      1.0000 0.63410  0.14073  0.47629  Biso   1.000  O
  O52      1.0000 0.86590  0.35927  0.97629  Biso   1.000  O
  O53      1.0000 0.36428  0.30988  0.03990  Biso   1.000  O
  O54      1.0000 0.13573  0.19012  0.53990  Biso   1.000  O
  O55      1.0000 0.63572  0.30988  0.46010  Biso   1.000  O
  O56      1.0000 0.86428  0.19012  0.96010  Biso   1.000  O
  O57      1.0000 0.13573  0.19012  0.96010  Biso   1.000  O
  O58      1.0000 0.36428  0.30988  0.46010  Biso   1.000  O
  O59      1.0000 0.86428  0.19012  0.53990  Biso   1.000  O
  O60      1.0000 0.63572  0.30988  0.03990  Biso   1.000  O
  O61      1.0000 0.36449  0.41172  0.98858  Biso   1.000  O
  O62      1.0000 0.13551  0.08828  0.48858  Biso   1.000  O
  O63      1.0000 0.63551  0.41172  0.51142  Biso   1.000  O
  O64      1.0000 0.86449  0.08828  0.01142  Biso   1.000  O
  O65      1.0000 0.13551  0.08828  0.01142  Biso   1.000  O
  O66      1.0000 0.36449  0.41172  0.51142  Biso   1.000  O
  O67      1.0000 0.86449  0.08828  0.48858  Biso   1.000  O
  O68      1.0000 0.63551  0.41172  0.98858  Biso   1.000  O
  O69      1.0000 0.50000  0.50000  0.00000  Biso   1.000  O
  O70      1.0000 0.50000  0.50000  0.50000  Biso   1.000  O
  O71      1.0000 0.50000  0.43726  0.25000  Biso   1.000  O
  O72      1.0000 0.00000  0.06274  0.75000  Biso   1.000  O
  O73      1.0000 0.50000  0.25327  0.25000  Biso   1.000  O
  O74      1.0000 0.00000  0.24673  0.75000  Biso   1.000  O
  O75      1.0000 0.00000  0.27339  0.05505  Biso   1.000  O
  O76      1.0000 0.50000  0.22661  0.55505  Biso   1.000  O
  O77      1.0000 0.00000  0.27339  0.44495  Biso   1.000  O
  O78      1.0000 0.50000  0.22661  0.94495  Biso   1.000  O
  O79      1.0000 0.00000  0.35429  0.25000  Biso   1.000  O
  O80      1.0000 0.50000  0.14571  0.75000  Biso   1.000  O
  Ir1      1.0000 0.79517  0.85693  0.93863  Biso   1.000  Ir
  Ir2      1.0000 0.70483  0.64307  0.43863  Biso   1.000  Ir
  Ir3      1.0000 0.20483  0.85693  0.56137  Biso   1.000  Ir
  Ir4      1.0000 0.29517  0.64307  0.06137  Biso   1.000  Ir
  Ir5      1.0000 0.70483  0.64307  0.06137  Biso   1.000  Ir
  Ir6      1.0000 0.79517  0.85693  0.56137  Biso   1.000  Ir
  Ir7      1.0000 0.29517  0.64307  0.43863  Biso   1.000  Ir
  Ir8      1.0000 0.20483  0.85693  0.93863  Biso   1.000  Ir
  Ir9      1.0000 0.50000  0.55965  0.94272  Biso   1.000  Ir
  Ir10     1.0000 0.00000  0.94035  0.44272  Biso   1.000  Ir
  Ir11     1.0000 0.50000  0.55965  0.55728  Biso   1.000  Ir
  Ir12     1.0000 0.00000  0.94035  0.05728  Biso   1.000  Ir
  Ir13     1.0000 0.50000  0.72501  0.93266  Biso   1.000  Ir
  Ir14     1.0000 0.00000  0.77499  0.43266  Biso   1.000  Ir
  Ir15     1.0000 0.50000  0.72501  0.56734  Biso   1.000  Ir
  Ir16     1.0000 0.00000  0.77499  0.06734  Biso   1.000  Ir
  Ir17     1.0000 0.00000  0.66357  0.93535  Biso   1.000  Ir
  Ir18     1.0000 0.50000  0.83643  0.43535  Biso   1.000  Ir
  Ir19     1.0000 0.00000  0.66357  0.56465  Biso   1.000  Ir
  Ir20     1.0000 0.50000  0.83643  0.06465  Biso   1.000  Ir
  Ir21     1.0000 0.29517  0.35693  0.93863  Biso   1.000  Ir
  Ir22     1.0000 0.20483  0.14307  0.43863  Biso   1.000  Ir
  Ir23     1.0000 0.70483  0.35693  0.56137  Biso   1.000  Ir
  Ir24     1.0000 0.79517  0.14307  0.06137  Biso   1.000  Ir
  Ir25     1.0000 0.20483  0.14307  0.06137  Biso   1.000  Ir
  Ir26     1.0000 0.29517  0.35693  0.56137  Biso   1.000  Ir
  Ir27     1.0000 0.79517  0.14307  0.43863  Biso   1.000  Ir
  Ir28     1.0000 0.70483  0.35693  0.93863  Biso   1.000  Ir
  Ir29     1.0000 0.00000  0.05965  0.94272  Biso   1.000  Ir
  Ir30     1.0000 0.50000  0.44035  0.44272  Biso   1.000  Ir
  Ir31     1.0000 0.00000  0.05965  0.55728  Biso   1.000  Ir
  Ir32     1.0000 0.50000  0.44035  0.05728  Biso   1.000  Ir
  Ir33     1.0000 0.00000  0.22501  0.93266  Biso   1.000  Ir
  Ir34     1.0000 0.50000  0.27499  0.43266  Biso   1.000  Ir
  Ir35     1.0000 0.00000  0.22501  0.56734  Biso   1.000  Ir
  Ir36     1.0000 0.50000  0.27499  0.06734  Biso   1.000  Ir
  Ir37     1.0000 0.50000  0.16357  0.93535  Biso   1.000  Ir
  Ir38     1.0000 0.00000  0.33643  0.43535  Biso   1.000  Ir
  Ir39     1.0000 0.50000  0.16357  0.56465  Biso   1.000  Ir
  Ir40     1.0000 0.00000  0.33643  0.06465  Biso   1.000  Ir
