data_image0
_cell_length_a       5.41695
_cell_length_b       5.41696
_cell_length_c       59.2994
_cell_angle_alpha    90
_cell_angle_beta     90
_cell_angle_gamma    120

_symmetry_space_group_name_H-M    "P 1"
_symmetry_int_tables_number       1

loop_
  _symmetry_equiv_pos_as_xyz
  'x, y, z'

loop_
  _atom_site_label
  _atom_site_occupancy
  _atom_site_fract_x
  _atom_site_fract_y
  _atom_site_fract_z
  _atom_site_thermal_displace_type
  _atom_site_B_iso_or_equiv
  _atom_site_type_symbol
  Ir1      1.0000 0.33333  0.66667  0.65621  Biso   1.000  Ir
  Ir2      1.0000 0.66667  0.33333  0.78124  Biso   1.000  Ir
  Ir3      1.0000 0.33333  0.66667  0.90622  Biso   1.000  Ir
  Ir4      1.0000 0.00000  0.00000  0.03127  Biso   1.000  Ir
  Ir5      1.0000 0.33333  0.66667  0.40623  Biso   1.000  Ir
  Ir6      1.0000 0.33333  0.66667  0.53127  Biso   1.000  Ir
  Ir7      1.0000 0.00000  0.00000  0.28127  Biso   1.000  Ir
  Ir8      1.0000 0.33333  0.66667  0.15622  Biso   1.000  Ir
  O1       1.0000 0.33333  0.66667  0.75213  Biso   1.000  O
  O2       1.0000 0.66667  0.33333  0.62714  Biso   1.000  O
  O3       1.0000 0.00000  0.00000  0.18532  Biso   1.000  O
  O4       1.0000 0.66667  0.33333  0.25220  Biso   1.000  O
  O5       1.0000 0.00000  0.00000  0.43533  Biso   1.000  O
  O6       1.0000 0.33333  0.66667  0.31037  Biso   1.000  O
  O7       1.0000 0.33333  0.66667  0.06037  Biso   1.000  O
  O8       1.0000 0.66667  0.33333  0.12715  Biso   1.000  O
  O9       1.0000 0.00000  0.00000  0.68532  Biso   1.000  O
  O10      1.0000 0.00000  0.00000  0.81035  Biso   1.000  O
  O11      1.0000 0.66667  0.33333  0.87714  Biso   1.000  O
  O12      1.0000 0.00000  0.00000  0.56037  Biso   1.000  O
  O13      1.0000 0.66667  0.33333  0.37715  Biso   1.000  O
  O14      1.0000 0.00000  0.00000  0.93533  Biso   1.000  O
  O15      1.0000 0.66667  0.33333  0.00220  Biso   1.000  O
  O16      1.0000 0.66667  0.33333  0.50220  Biso   1.000  O
