data_image0
_cell_length_a       12.1703
_cell_length_b       9.17727
_cell_length_c       11.3967
_cell_angle_alpha    90
_cell_angle_beta     90
_cell_angle_gamma    90

_symmetry_space_group_name_H-M    "P 1"
_symmetry_int_tables_number       1

loop_
  _symmetry_equiv_pos_as_xyz
  'x, y, z'

loop_
  _atom_site_label
  _atom_site_occupancy
  _atom_site_fract_x
  _atom_site_fract_y
  _atom_site_fract_z
  _atom_site_thermal_displace_type
  _atom_site_B_iso_or_equiv
  _atom_site_type_symbol
  O1       1.0000 0.06545  0.82399  0.23167  Biso   1.000  O
  O2       1.0000 0.43455  0.17601  0.23167  Biso   1.000  O
  O3       1.0000 0.93455  0.82399  0.76833  Biso   1.000  O
  O4       1.0000 0.56545  0.17601  0.76833  Biso   1.000  O
  O5       1.0000 0.93455  0.17601  0.76833  Biso   1.000  O
  O6       1.0000 0.56545  0.82399  0.76833  Biso   1.000  O
  O7       1.0000 0.06545  0.17601  0.23167  Biso   1.000  O
  O8       1.0000 0.43455  0.82399  0.23167  Biso   1.000  O
  O9       1.0000 0.25000  0.72918  0.41959  Biso   1.000  O
  O10      1.0000 0.25000  0.27082  0.41959  Biso   1.000  O
  O11      1.0000 0.75000  0.72918  0.58042  Biso   1.000  O
  O12      1.0000 0.75000  0.27082  0.58042  Biso   1.000  O
  O13      1.0000 0.06499  0.50000  0.33401  Biso   1.000  O
  O14      1.0000 0.43501  0.50000  0.33401  Biso   1.000  O
  O15      1.0000 0.93501  0.50000  0.66599  Biso   1.000  O
  O16      1.0000 0.56499  0.50000  0.66599  Biso   1.000  O
  O17      1.0000 0.00000  0.77079  0.50000  Biso   1.000  O
  O18      1.0000 0.50000  0.22921  0.50000  Biso   1.000  O
  O19      1.0000 0.00000  0.22921  0.50000  Biso   1.000  O
  O20      1.0000 0.50000  0.77079  0.50000  Biso   1.000  O
  O21      1.0000 0.00000  0.00000  0.00000  Biso   1.000  O
  O22      1.0000 0.50000  0.00000  0.00000  Biso   1.000  O
  O23      1.0000 0.25000  0.00000  0.08644  Biso   1.000  O
  O24      1.0000 0.75000  0.00000  0.91356  Biso   1.000  O
  Ir1      1.0000 0.09539  0.70585  0.37107  Biso   1.000  Ir
  Ir2      1.0000 0.40461  0.29415  0.37107  Biso   1.000  Ir
  Ir3      1.0000 0.90461  0.70585  0.62893  Biso   1.000  Ir
  Ir4      1.0000 0.59539  0.29415  0.62893  Biso   1.000  Ir
  Ir5      1.0000 0.90461  0.29415  0.62893  Biso   1.000  Ir
  Ir6      1.0000 0.59539  0.70585  0.62893  Biso   1.000  Ir
  Ir7      1.0000 0.09539  0.29415  0.37107  Biso   1.000  Ir
  Ir8      1.0000 0.40461  0.70585  0.37107  Biso   1.000  Ir
  Ir9      1.0000 0.09535  0.00000  0.13749  Biso   1.000  Ir
  Ir10     1.0000 0.40465  0.00000  0.13749  Biso   1.000  Ir
  Ir11     1.0000 0.90465  0.00000  0.86251  Biso   1.000  Ir
  Ir12     1.0000 0.59535  0.00000  0.86251  Biso   1.000  Ir
