data_image0
_cell_length_a       11.1696
_cell_length_b       11.1696
_cell_length_c       11.1696
_cell_angle_alpha    90
_cell_angle_beta     90
_cell_angle_gamma    90

_symmetry_space_group_name_H-M    "P 1"
_symmetry_int_tables_number       1

loop_
  _symmetry_equiv_pos_as_xyz
  'x, y, z'

loop_
  _atom_site_label
  _atom_site_occupancy
  _atom_site_fract_x
  _atom_site_fract_y
  _atom_site_fract_z
  _atom_site_thermal_displace_type
  _atom_site_B_iso_or_equiv
  _atom_site_type_symbol
  Ir1      1.0000 0.15726  0.84274  0.15726  Biso   1.000  Ir
  Ir2      1.0000 0.84274  0.15726  0.15726  Biso   1.000  Ir
  Ir3      1.0000 0.84274  0.84274  0.84274  Biso   1.000  Ir
  Ir4      1.0000 0.15726  0.15726  0.84274  Biso   1.000  Ir
  Ir5      1.0000 0.90726  0.09274  0.59274  Biso   1.000  Ir
  Ir6      1.0000 0.09274  0.90726  0.59274  Biso   1.000  Ir
  Ir7      1.0000 0.40726  0.90726  0.90726  Biso   1.000  Ir
  Ir8      1.0000 0.59274  0.09274  0.90726  Biso   1.000  Ir
  Ir9      1.0000 0.15726  0.34274  0.65726  Biso   1.000  Ir
  Ir10     1.0000 0.84274  0.65726  0.65726  Biso   1.000  Ir
  Ir11     1.0000 0.84274  0.34274  0.34274  Biso   1.000  Ir
  Ir12     1.0000 0.15726  0.65726  0.34274  Biso   1.000  Ir
  Ir13     1.0000 0.90726  0.59274  0.09274  Biso   1.000  Ir
  Ir14     1.0000 0.09274  0.40726  0.09274  Biso   1.000  Ir
  Ir15     1.0000 0.40726  0.40726  0.40726  Biso   1.000  Ir
  Ir16     1.0000 0.59274  0.59274  0.40726  Biso   1.000  Ir
  Ir17     1.0000 0.65726  0.84274  0.65726  Biso   1.000  Ir
  Ir18     1.0000 0.34274  0.15726  0.65726  Biso   1.000  Ir
  Ir19     1.0000 0.34274  0.84274  0.34274  Biso   1.000  Ir
  Ir20     1.0000 0.65726  0.15726  0.34274  Biso   1.000  Ir
  Ir21     1.0000 0.40726  0.09274  0.09274  Biso   1.000  Ir
  Ir22     1.0000 0.59274  0.90726  0.09274  Biso   1.000  Ir
  Ir23     1.0000 0.90726  0.90726  0.40726  Biso   1.000  Ir
  Ir24     1.0000 0.09274  0.09274  0.40726  Biso   1.000  Ir
  Ir25     1.0000 0.65726  0.34274  0.15726  Biso   1.000  Ir
  Ir26     1.0000 0.34274  0.65726  0.15726  Biso   1.000  Ir
  Ir27     1.0000 0.34274  0.34274  0.84274  Biso   1.000  Ir
  Ir28     1.0000 0.65726  0.65726  0.84274  Biso   1.000  Ir
  Ir29     1.0000 0.40726  0.59274  0.59274  Biso   1.000  Ir
  Ir30     1.0000 0.59274  0.40726  0.59274  Biso   1.000  Ir
  Ir31     1.0000 0.90726  0.40726  0.90726  Biso   1.000  Ir
  Ir32     1.0000 0.09274  0.59274  0.90726  Biso   1.000  Ir
  O1       1.0000 0.87500  0.12500  0.37500  Biso   1.000  O
  O2       1.0000 0.12500  0.87500  0.37500  Biso   1.000  O
  O3       1.0000 0.12500  0.12500  0.62500  Biso   1.000  O
  O4       1.0000 0.87500  0.87500  0.62500  Biso   1.000  O
  O5       1.0000 0.81332  0.00000  0.00000  Biso   1.000  O
  O6       1.0000 0.18668  0.00000  0.00000  Biso   1.000  O
  O7       1.0000 0.00000  0.18668  0.00000  Biso   1.000  O
  O8       1.0000 0.00000  0.81332  0.00000  Biso   1.000  O
  O9       1.0000 0.00000  0.00000  0.81332  Biso   1.000  O
  O10      1.0000 0.00000  0.00000  0.18668  Biso   1.000  O
  O11      1.0000 0.25000  0.93668  0.75000  Biso   1.000  O
  O12      1.0000 0.75000  0.06332  0.75000  Biso   1.000  O
  O13      1.0000 0.06332  0.75000  0.75000  Biso   1.000  O
  O14      1.0000 0.43668  0.75000  0.75000  Biso   1.000  O
  O15      1.0000 0.25000  0.75000  0.93668  Biso   1.000  O
  O16      1.0000 0.25000  0.75000  0.56332  Biso   1.000  O
  O17      1.0000 0.87500  0.62500  0.87500  Biso   1.000  O
  O18      1.0000 0.12500  0.37500  0.87500  Biso   1.000  O
  O19      1.0000 0.12500  0.62500  0.12500  Biso   1.000  O
  O20      1.0000 0.87500  0.37500  0.12500  Biso   1.000  O
  O21      1.0000 0.81332  0.50000  0.50000  Biso   1.000  O
  O22      1.0000 0.18668  0.50000  0.50000  Biso   1.000  O
  O23      1.0000 0.00000  0.68668  0.50000  Biso   1.000  O
  O24      1.0000 0.00000  0.31332  0.50000  Biso   1.000  O
  O25      1.0000 0.00000  0.50000  0.31332  Biso   1.000  O
  O26      1.0000 0.00000  0.50000  0.68668  Biso   1.000  O
  O27      1.0000 0.25000  0.43668  0.25000  Biso   1.000  O
  O28      1.0000 0.75000  0.56332  0.25000  Biso   1.000  O
  O29      1.0000 0.06332  0.25000  0.25000  Biso   1.000  O
  O30      1.0000 0.43668  0.25000  0.25000  Biso   1.000  O
  O31      1.0000 0.25000  0.25000  0.43668  Biso   1.000  O
  O32      1.0000 0.25000  0.25000  0.06332  Biso   1.000  O
  O33      1.0000 0.37500  0.12500  0.87500  Biso   1.000  O
  O34      1.0000 0.62500  0.87500  0.87500  Biso   1.000  O
  O35      1.0000 0.62500  0.12500  0.12500  Biso   1.000  O
  O36      1.0000 0.37500  0.87500  0.12500  Biso   1.000  O
  O37      1.0000 0.31332  0.00000  0.50000  Biso   1.000  O
  O38      1.0000 0.68668  0.00000  0.50000  Biso   1.000  O
  O39      1.0000 0.50000  0.18668  0.50000  Biso   1.000  O
  O40      1.0000 0.50000  0.81332  0.50000  Biso   1.000  O
  O41      1.0000 0.50000  0.00000  0.31332  Biso   1.000  O
  O42      1.0000 0.50000  0.00000  0.68668  Biso   1.000  O
  O43      1.0000 0.75000  0.93668  0.25000  Biso   1.000  O
  O44      1.0000 0.25000  0.06332  0.25000  Biso   1.000  O
  O45      1.0000 0.56332  0.75000  0.25000  Biso   1.000  O
  O46      1.0000 0.93668  0.75000  0.25000  Biso   1.000  O
  O47      1.0000 0.75000  0.75000  0.43668  Biso   1.000  O
  O48      1.0000 0.75000  0.75000  0.06332  Biso   1.000  O
  O49      1.0000 0.37500  0.62500  0.37500  Biso   1.000  O
  O50      1.0000 0.62500  0.37500  0.37500  Biso   1.000  O
  O51      1.0000 0.62500  0.62500  0.62500  Biso   1.000  O
  O52      1.0000 0.37500  0.37500  0.62500  Biso   1.000  O
  O53      1.0000 0.31332  0.50000  0.00000  Biso   1.000  O
  O54      1.0000 0.68668  0.50000  0.00000  Biso   1.000  O
  O55      1.0000 0.50000  0.68668  0.00000  Biso   1.000  O
  O56      1.0000 0.50000  0.31332  0.00000  Biso   1.000  O
  O57      1.0000 0.50000  0.50000  0.81332  Biso   1.000  O
  O58      1.0000 0.50000  0.50000  0.18668  Biso   1.000  O
  O59      1.0000 0.75000  0.43668  0.75000  Biso   1.000  O
  O60      1.0000 0.25000  0.56332  0.75000  Biso   1.000  O
  O61      1.0000 0.56332  0.25000  0.75000  Biso   1.000  O
  O62      1.0000 0.93668  0.25000  0.75000  Biso   1.000  O
  O63      1.0000 0.75000  0.25000  0.93668  Biso   1.000  O
  O64      1.0000 0.75000  0.25000  0.56332  Biso   1.000  O
