data_image0
_cell_length_a       8.30201
_cell_length_b       9.3598
_cell_length_c       12.8274
_cell_angle_alpha    109.074
_cell_angle_beta     90.0151
_cell_angle_gamma    90.0234

_symmetry_space_group_name_H-M    "P 1"
_symmetry_int_tables_number       1

loop_
  _symmetry_equiv_pos_as_xyz
  'x, y, z'

loop_
  _atom_site_label
  _atom_site_occupancy
  _atom_site_fract_x
  _atom_site_fract_y
  _atom_site_fract_z
  _atom_site_thermal_displace_type
  _atom_site_B_iso_or_equiv
  _atom_site_type_symbol
  O1       1.0000 0.25009  0.42614  0.67614  Biso   1.000  O
  O2       1.0000 0.74991  0.57386  0.32386  Biso   1.000  O
  O3       1.0000 0.00000  0.50000  0.00000  Biso   1.000  O
  O4       1.0000 0.50000  1.00000  0.50000  Biso   1.000  O
  O5       1.0000 0.00000  0.00000  0.00000  Biso   1.000  O
  O6       1.0000 0.00000  0.50000  0.50000  Biso   1.000  O
  O7       1.0000 0.50000  0.50000  0.00000  Biso   1.000  O
  O8       1.0000 0.50000  0.00000  0.00000  Biso   1.000  O
  Ir1      1.0000 0.70859  0.66915  0.22531  Biso   1.000  Ir
  Ir2      1.0000 0.29141  0.33085  0.77469  Biso   1.000  Ir
  Ir3      1.0000 0.79130  0.28152  0.22539  Biso   1.000  Ir
  Ir4      1.0000 0.20870  0.71848  0.77461  Biso   1.000  Ir
