data_image0
_cell_length_a       8.39058
_cell_length_b       4.20435
_cell_length_c       12.2068
_cell_angle_alpha    90
_cell_angle_beta     107.674
_cell_angle_gamma    90

_symmetry_space_group_name_H-M    "P 1"
_symmetry_int_tables_number       1

loop_
  _symmetry_equiv_pos_as_xyz
  'x, y, z'

loop_
  _atom_site_label
  _atom_site_occupancy
  _atom_site_fract_x
  _atom_site_fract_y
  _atom_site_fract_z
  _atom_site_thermal_displace_type
  _atom_site_B_iso_or_equiv
  _atom_site_type_symbol
  O1       1.0000 0.31519  0.00000  0.94616  Biso   1.000  O
  O2       1.0000 0.05215  0.50000  0.68881  Biso   1.000  O
  O3       1.0000 0.80170  0.00000  0.43239  Biso   1.000  O
  O4       1.0000 0.32417  0.50000  0.83752  Biso   1.000  O
  O5       1.0000 0.04980  0.00000  0.18493  Biso   1.000  O
  O6       1.0000 0.07262  0.00000  0.58440  Biso   1.000  O
  O7       1.0000 0.87589  0.50000  0.12855  Biso   1.000  O
  O8       1.0000 0.83352  0.50000  0.33075  Biso   1.000  O
  O9       1.0000 0.81519  0.50000  0.94616  Biso   1.000  O
  O10      1.0000 0.55215  0.00000  0.68881  Biso   1.000  O
  O11      1.0000 0.30170  0.50000  0.43239  Biso   1.000  O
  O12      1.0000 0.82417  0.00000  0.83752  Biso   1.000  O
  O13      1.0000 0.54980  0.50000  0.18493  Biso   1.000  O
  O14      1.0000 0.57262  0.50000  0.58440  Biso   1.000  O
  O15      1.0000 0.37589  0.00000  0.12855  Biso   1.000  O
  O16      1.0000 0.33352  0.00000  0.33075  Biso   1.000  O
  Ir1      1.0000 0.51243  0.50000  0.00246  Biso   1.000  Ir
  Ir2      1.0000 0.26650  0.00000  0.74869  Biso   1.000  Ir
  Ir3      1.0000 0.02024  0.50000  0.49726  Biso   1.000  Ir
  Ir4      1.0000 0.75091  0.00000  0.24305  Biso   1.000  Ir
  Ir5      1.0000 0.01243  0.00000  0.00246  Biso   1.000  Ir
  Ir6      1.0000 0.76650  0.50000  0.74869  Biso   1.000  Ir
  Ir7      1.0000 0.52024  0.00000  0.49726  Biso   1.000  Ir
  Ir8      1.0000 0.25091  0.50000  0.24305  Biso   1.000  Ir
