data_image0
_cell_length_a       9.95545
_cell_length_b       15.2145
_cell_length_c       18.6811
_cell_angle_alpha    70.5512
_cell_angle_beta     88.9282
_cell_angle_gamma    86.4201

_symmetry_space_group_name_H-M    "P 1"
_symmetry_int_tables_number       1

loop_
  _symmetry_equiv_pos_as_xyz
  'x, y, z'

loop_
  _atom_site_label
  _atom_site_occupancy
  _atom_site_fract_x
  _atom_site_fract_y
  _atom_site_fract_z
  _atom_site_thermal_displace_type
  _atom_site_B_iso_or_equiv
  _atom_site_type_symbol
  O1       1.0000 0.50133  0.39223  0.21520  Biso   1.000  O
  O2       1.0000 0.50149  0.93736  0.12452  Biso   1.000  O
  O3       1.0000 0.07823  0.01114  0.22309  Biso   1.000  O
  O4       1.0000 0.22647  0.05811  0.54891  Biso   1.000  O
  O5       1.0000 0.84248  0.11925  0.89433  Biso   1.000  O
  O6       1.0000 0.66537  0.48687  0.67804  Biso   1.000  O
  O7       1.0000 0.92490  0.98712  0.77713  Biso   1.000  O
  O8       1.0000 0.50006  0.60657  0.78585  Biso   1.000  O
  O9       1.0000 0.33372  0.14574  0.27759  Biso   1.000  O
  O10      1.0000 0.81145  0.66539  0.54048  Biso   1.000  O
  O11      1.0000 0.81447  0.20849  0.45836  Biso   1.000  O
  O12      1.0000 0.15949  0.98524  0.89498  Biso   1.000  O
  O13      1.0000 0.40728  0.82885  0.83854  Biso   1.000  O
  O14      1.0000 0.01550  0.47141  0.64787  Biso   1.000  O
  O15      1.0000 0.84228  0.01770  0.10537  Biso   1.000  O
  O16      1.0000 0.91801  0.76613  0.22160  Biso   1.000  O
  O17      1.0000 0.98966  0.87892  0.64863  Biso   1.000  O
  O18      1.0000 0.66649  0.57499  0.27842  Biso   1.000  O
  O19      1.0000 0.01698  0.11966  0.35211  Biso   1.000  O
  O20      1.0000 0.50036  0.06324  0.87536  Biso   1.000  O
  O21      1.0000 0.22652  0.88636  0.37157  Biso   1.000  O
  O22      1.0000 0.07876  0.23400  0.77643  Biso   1.000  O
  O23      1.0000 0.77813  0.94110  0.45055  Biso   1.000  O
  O24      1.0000 0.77221  0.10929  0.62872  Biso   1.000  O
  O25      1.0000 0.50202  0.23368  0.52860  Biso   1.000  O
  O26      1.0000 0.33867  0.83688  0.67862  Biso   1.000  O
  O27      1.0000 0.40436  0.66618  0.16064  Biso   1.000  O
  O28      1.0000 0.19025  0.33263  0.45803  Biso   1.000  O
  O29      1.0000 0.22817  0.60687  0.45115  Biso   1.000  O
  O30      1.0000 0.50082  0.76763  0.47041  Biso   1.000  O
  O31      1.0000 0.40454  0.82837  0.99999  Biso   1.000  O
  O32      1.0000 0.77708  0.38930  0.55029  Biso   1.000  O
  O33      1.0000 0.67332  0.84879  0.72420  Biso   1.000  O
  O34      1.0000 0.33231  0.42435  0.72326  Biso   1.000  O
  O35      1.0000 0.23119  0.25922  0.62814  Biso   1.000  O
  O36      1.0000 0.19130  0.78912  0.54241  Biso   1.000  O
  O37      1.0000 0.98481  0.53055  0.35255  Biso   1.000  O
  O38      1.0000 0.33021  0.51476  0.31970  Biso   1.000  O
  O39      1.0000 0.66933  0.16344  0.32023  Biso   1.000  O
  O40      1.0000 0.59300  0.17407  0.15992  Biso   1.000  O
  O41      1.0000 0.59622  0.17238  0.99948  Biso   1.000  O
  O42      1.0000 0.59881  0.33398  0.83832  Biso   1.000  O
  O43      1.0000 0.77023  0.74383  0.37010  Biso   1.000  O
  O44      1.0000 0.15898  0.88049  0.10562  Biso   1.000  O
  Ir1      1.0000 0.63556  0.17218  0.90172  Biso   1.000  Ir
  Ir2      1.0000 0.00130  0.08182  0.83518  Biso   1.000  Ir
  Ir3      1.0000 0.16518  0.34784  0.69341  Biso   1.000  Ir
  Ir4      1.0000 0.47974  0.78175  0.75680  Biso   1.000  Ir
  Ir5      1.0000 0.28710  0.22187  0.54112  Biso   1.000  Ir
  Ir6      1.0000 0.71663  0.23395  0.54173  Biso   1.000  Ir
  Ir7      1.0000 0.28637  0.76355  0.45855  Biso   1.000  Ir
  Ir8      1.0000 0.52422  0.46143  0.75624  Biso   1.000  Ir
  Ir9      1.0000 0.81858  0.10755  0.39487  Biso   1.000  Ir
  Ir10     1.0000 0.18732  0.89153  0.60508  Biso   1.000  Ir
  Ir11     1.0000 0.18387  0.49768  0.39500  Biso   1.000  Ir
  Ir12     1.0000 0.63382  0.07477  0.09755  Biso   1.000  Ir
  Ir13     1.0000 0.16456  0.04143  0.30612  Biso   1.000  Ir
  Ir14     1.0000 0.36635  0.82820  0.09789  Biso   1.000  Ir
  Ir15     1.0000 0.47576  0.53865  0.24349  Biso   1.000  Ir
  Ir16     1.0000 0.36716  0.92645  0.90189  Biso   1.000  Ir
  Ir17     1.0000 0.83953  0.95577  0.69420  Biso   1.000  Ir
  Ir18     1.0000 0.81696  0.50138  0.60495  Biso   1.000  Ir
  Ir19     1.0000 0.83486  0.65278  0.30596  Biso   1.000  Ir
  Ir20     1.0000 0.52459  0.21739  0.24346  Biso   1.000  Ir
  Ir21     1.0000 0.99954  0.91816  0.16439  Biso   1.000  Ir
  Ir22     1.0000 0.71563  0.77813  0.45801  Biso   1.000  Ir
