data_image0
_cell_length_a       5.07829
_cell_length_b       5.07829
_cell_length_c       18.569
_cell_angle_alpha    90
_cell_angle_beta     90
_cell_angle_gamma    90

_symmetry_space_group_name_H-M    "P 1"
_symmetry_int_tables_number       1

loop_
  _symmetry_equiv_pos_as_xyz
  'x, y, z'

loop_
  _atom_site_label
  _atom_site_occupancy
  _atom_site_fract_x
  _atom_site_fract_y
  _atom_site_fract_z
  _atom_site_thermal_displace_type
  _atom_site_B_iso_or_equiv
  _atom_site_type_symbol
  O1       1.0000 0.81801  0.30069  0.05945  Biso   1.000  O
  O2       1.0000 0.18199  0.69931  0.55945  Biso   1.000  O
  O3       1.0000 0.19931  0.31801  0.30945  Biso   1.000  O
  O4       1.0000 0.80069  0.68199  0.80945  Biso   1.000  O
  O5       1.0000 0.68199  0.80069  0.19055  Biso   1.000  O
  O6       1.0000 0.31801  0.19931  0.69055  Biso   1.000  O
  O7       1.0000 0.30069  0.81801  0.94055  Biso   1.000  O
  O8       1.0000 0.69931  0.18199  0.44055  Biso   1.000  O
  O9       1.0000 0.50826  0.48012  0.12411  Biso   1.000  O
  O10      1.0000 0.49174  0.51988  0.62411  Biso   1.000  O
  O11      1.0000 0.01988  0.00826  0.37411  Biso   1.000  O
  O12      1.0000 0.98012  0.99174  0.87411  Biso   1.000  O
  O13      1.0000 0.99174  0.98012  0.12589  Biso   1.000  O
  O14      1.0000 0.00826  0.01988  0.62589  Biso   1.000  O
  O15      1.0000 0.48012  0.50826  0.87589  Biso   1.000  O
  O16      1.0000 0.51988  0.49174  0.37589  Biso   1.000  O
  Ir1      1.0000 0.15339  0.63480  0.05030  Biso   1.000  Ir
  Ir2      1.0000 0.84661  0.36520  0.55030  Biso   1.000  Ir
  Ir3      1.0000 0.86520  0.65339  0.30030  Biso   1.000  Ir
  Ir4      1.0000 0.13480  0.34661  0.80030  Biso   1.000  Ir
  Ir5      1.0000 0.34661  0.13480  0.19970  Biso   1.000  Ir
  Ir6      1.0000 0.65339  0.86520  0.69970  Biso   1.000  Ir
  Ir7      1.0000 0.63480  0.15339  0.94970  Biso   1.000  Ir
  Ir8      1.0000 0.36520  0.84661  0.44970  Biso   1.000  Ir
