data_image0
_cell_length_a       24.8167
_cell_length_b       24.8167
_cell_length_c       3.51261
_cell_angle_alpha    90
_cell_angle_beta     90
_cell_angle_gamma    120

_symmetry_space_group_name_H-M    "P 1"
_symmetry_int_tables_number       1

loop_
  _symmetry_equiv_pos_as_xyz
  'x, y, z'

loop_
  _atom_site_label
  _atom_site_occupancy
  _atom_site_fract_x
  _atom_site_fract_y
  _atom_site_fract_z
  _atom_site_thermal_displace_type
  _atom_site_B_iso_or_equiv
  _atom_site_type_symbol
  Ir1      1.0000 0.33333  0.66667  0.00000  Biso   1.000  Ir
  Ir2      1.0000 0.66667  0.33333  0.00000  Biso   1.000  Ir
  Ir3      1.0000 0.00000  0.00000  0.00000  Biso   1.000  Ir
  Ir4      1.0000 0.33328  0.00000  0.00000  Biso   1.000  Ir
  Ir5      1.0000 0.00000  0.33328  0.00000  Biso   1.000  Ir
  Ir6      1.0000 0.66672  0.66672  0.00000  Biso   1.000  Ir
  Ir7      1.0000 0.44452  0.22252  0.50000  Biso   1.000  Ir
  Ir8      1.0000 0.77748  0.22200  0.50000  Biso   1.000  Ir
  Ir9      1.0000 0.77800  0.55548  0.50000  Biso   1.000  Ir
  Ir10     1.0000 0.22252  0.44452  0.50000  Biso   1.000  Ir
  Ir11     1.0000 0.22200  0.77748  0.50000  Biso   1.000  Ir
  Ir12     1.0000 0.55548  0.77800  0.50000  Biso   1.000  Ir
  Ir13     1.0000 0.22205  0.11101  0.50000  Biso   1.000  Ir
  Ir14     1.0000 0.88899  0.11103  0.50000  Biso   1.000  Ir
  Ir15     1.0000 0.88897  0.77795  0.50000  Biso   1.000  Ir
  Ir16     1.0000 0.11101  0.22205  0.50000  Biso   1.000  Ir
  Ir17     1.0000 0.11103  0.88899  0.50000  Biso   1.000  Ir
  Ir18     1.0000 0.77795  0.88897  0.50000  Biso   1.000  Ir
  Ir19     1.0000 0.55521  0.11084  0.50000  Biso   1.000  Ir
  Ir20     1.0000 0.88916  0.44437  0.50000  Biso   1.000  Ir
  Ir21     1.0000 0.55563  0.44479  0.50000  Biso   1.000  Ir
  Ir22     1.0000 0.11084  0.55521  0.50000  Biso   1.000  Ir
  Ir23     1.0000 0.44437  0.88916  0.50000  Biso   1.000  Ir
  Ir24     1.0000 0.44479  0.55563  0.50000  Biso   1.000  Ir
  Ir25     1.0000 0.66699  0.00000  0.00000  Biso   1.000  Ir
  Ir26     1.0000 0.00000  0.66699  0.00000  Biso   1.000  Ir
  Ir27     1.0000 0.33301  0.33301  0.00000  Biso   1.000  Ir
  O1       1.0000 0.41770  0.08474  0.50000  Biso   1.000  O
  O2       1.0000 0.91526  0.33296  0.50000  Biso   1.000  O
  O3       1.0000 0.66704  0.58230  0.50000  Biso   1.000  O
  O4       1.0000 0.08474  0.41770  0.50000  Biso   1.000  O
  O5       1.0000 0.33296  0.91526  0.50000  Biso   1.000  O
  O6       1.0000 0.58230  0.66704  0.50000  Biso   1.000  O
  O7       1.0000 0.24871  0.00000  0.50000  Biso   1.000  O
  O8       1.0000 0.00000  0.24871  0.50000  Biso   1.000  O
  O9       1.0000 0.75129  0.75129  0.50000  Biso   1.000  O
  O10      1.0000 0.33327  0.13653  0.00000  Biso   1.000  O
  O11      1.0000 0.86346  0.19673  0.00000  Biso   1.000  O
  O12      1.0000 0.80327  0.66673  0.00000  Biso   1.000  O
  O13      1.0000 0.13653  0.33327  0.00000  Biso   1.000  O
  O14      1.0000 0.19673  0.86347  0.00000  Biso   1.000  O
  O15      1.0000 0.66673  0.80327  0.00000  Biso   1.000  O
  O16      1.0000 0.46945  0.00000  0.00000  Biso   1.000  O
  O17      1.0000 0.00000  0.46946  0.00000  Biso   1.000  O
  O18      1.0000 0.53054  0.53055  0.00000  Biso   1.000  O
  O19      1.0000 0.91555  0.00000  0.50000  Biso   1.000  O
  O20      1.0000 0.00000  0.91555  0.50000  Biso   1.000  O
  O21      1.0000 0.08445  0.08445  0.50000  Biso   1.000  O
  O22      1.0000 0.75140  0.41781  0.50000  Biso   1.000  O
  O23      1.0000 0.58219  0.33359  0.50000  Biso   1.000  O
  O24      1.0000 0.66640  0.24860  0.50000  Biso   1.000  O
  O25      1.0000 0.41781  0.75140  0.50000  Biso   1.000  O
  O26      1.0000 0.33359  0.58220  0.50000  Biso   1.000  O
  O27      1.0000 0.24860  0.66641  0.50000  Biso   1.000  O
  O28      1.0000 0.13638  0.00000  0.00000  Biso   1.000  O
  O29      1.0000 0.00000  0.13638  0.00000  Biso   1.000  O
  O30      1.0000 0.86362  0.86362  0.00000  Biso   1.000  O
  O31      1.0000 0.86387  0.53016  0.00000  Biso   1.000  O
  O32      1.0000 0.46984  0.33371  0.00000  Biso   1.000  O
  O33      1.0000 0.66629  0.13613  0.00000  Biso   1.000  O
  O34      1.0000 0.53016  0.86387  0.00000  Biso   1.000  O
  O35      1.0000 0.33371  0.46984  0.00000  Biso   1.000  O
  O36      1.0000 0.13613  0.66629  0.00000  Biso   1.000  O
  O37      1.0000 0.80298  0.33309  0.00000  Biso   1.000  O
  O38      1.0000 0.66691  0.46988  0.00000  Biso   1.000  O
  O39      1.0000 0.53012  0.19702  0.00000  Biso   1.000  O
  O40      1.0000 0.33309  0.80298  0.00000  Biso   1.000  O
  O41      1.0000 0.46988  0.66691  0.00000  Biso   1.000  O
  O42      1.0000 0.19702  0.53012  0.00000  Biso   1.000  O
  O43      1.0000 0.80334  0.00000  0.00000  Biso   1.000  O
  O44      1.0000 0.00000  0.80334  0.00000  Biso   1.000  O
  O45      1.0000 0.19666  0.19666  0.00000  Biso   1.000  O
  O46      1.0000 0.58232  0.00000  0.50000  Biso   1.000  O
  O47      1.0000 0.00000  0.58232  0.50000  Biso   1.000  O
  O48      1.0000 0.41768  0.41768  0.50000  Biso   1.000  O
  O49      1.0000 0.33317  0.24862  0.50000  Biso   1.000  O
  O50      1.0000 0.75138  0.08456  0.50000  Biso   1.000  O
  O51      1.0000 0.91544  0.66683  0.50000  Biso   1.000  O
  O52      1.0000 0.24862  0.33317  0.50000  Biso   1.000  O
  O53      1.0000 0.08456  0.75138  0.50000  Biso   1.000  O
  O54      1.0000 0.66682  0.91544  0.50000  Biso   1.000  O
