data_image0
_cell_length_a       10.5047
_cell_length_b       12.8126
_cell_length_c       10.5978
_cell_angle_alpha    90
_cell_angle_beta     90
_cell_angle_gamma    90

_symmetry_space_group_name_H-M    "P 1"
_symmetry_int_tables_number       1

loop_
  _symmetry_equiv_pos_as_xyz
  'x, y, z'

loop_
  _atom_site_label
  _atom_site_occupancy
  _atom_site_fract_x
  _atom_site_fract_y
  _atom_site_fract_z
  _atom_site_thermal_displace_type
  _atom_site_B_iso_or_equiv
  _atom_site_type_symbol
  O1       1.0000 0.40301  0.31657  0.39843  Biso   1.000  O
  O2       1.0000 0.59699  0.81657  0.10157  Biso   1.000  O
  O3       1.0000 0.59699  0.18343  0.39843  Biso   1.000  O
  O4       1.0000 0.40301  0.68343  0.10157  Biso   1.000  O
  O5       1.0000 0.59699  0.68343  0.60157  Biso   1.000  O
  O6       1.0000 0.40301  0.18343  0.89843  Biso   1.000  O
  O7       1.0000 0.40301  0.81657  0.60157  Biso   1.000  O
  O8       1.0000 0.59699  0.31657  0.89843  Biso   1.000  O
  O9       1.0000 0.66645  0.56786  0.84594  Biso   1.000  O
  O10      1.0000 0.83355  0.56786  0.15407  Biso   1.000  O
  O11      1.0000 0.33355  0.93214  0.84594  Biso   1.000  O
  O12      1.0000 0.66645  0.43214  0.65407  Biso   1.000  O
  O13      1.0000 0.33355  0.43214  0.15407  Biso   1.000  O
  O14      1.0000 0.16645  0.43214  0.84594  Biso   1.000  O
  O15      1.0000 0.66645  0.06786  0.15407  Biso   1.000  O
  O16      1.0000 0.33355  0.56786  0.34594  Biso   1.000  O
  O17      1.0000 0.90301  0.81657  0.89843  Biso   1.000  O
  O18      1.0000 0.09699  0.31657  0.60157  Biso   1.000  O
  O19      1.0000 0.09699  0.68343  0.89843  Biso   1.000  O
  O20      1.0000 0.90301  0.18343  0.60157  Biso   1.000  O
  O21      1.0000 0.09699  0.18343  0.10157  Biso   1.000  O
  O22      1.0000 0.90301  0.68343  0.39843  Biso   1.000  O
  O23      1.0000 0.90301  0.31657  0.10157  Biso   1.000  O
  O24      1.0000 0.09699  0.81657  0.39843  Biso   1.000  O
  O25      1.0000 0.16645  0.06786  0.34594  Biso   1.000  O
  O26      1.0000 0.33355  0.06786  0.65407  Biso   1.000  O
  O27      1.0000 0.83355  0.43214  0.34594  Biso   1.000  O
  O28      1.0000 0.16645  0.93214  0.15407  Biso   1.000  O
  O29      1.0000 0.83355  0.93214  0.65407  Biso   1.000  O
  O30      1.0000 0.66645  0.93214  0.34594  Biso   1.000  O
  O31      1.0000 0.16645  0.56786  0.65407  Biso   1.000  O
  O32      1.0000 0.83355  0.06786  0.84594  Biso   1.000  O
  Ir1      1.0000 0.78439  0.50000  0.75000  Biso   1.000  Ir
  Ir2      1.0000 0.71561  0.50000  0.25000  Biso   1.000  Ir
  Ir3      1.0000 0.21561  0.50000  0.25000  Biso   1.000  Ir
  Ir4      1.0000 0.28439  0.50000  0.75000  Biso   1.000  Ir
  Ir5      1.0000 0.00000  0.75000  0.01497  Biso   1.000  Ir
  Ir6      1.0000 0.50000  0.75000  0.98503  Biso   1.000  Ir
  Ir7      1.0000 0.00000  0.25000  0.98503  Biso   1.000  Ir
  Ir8      1.0000 0.50000  0.25000  0.01497  Biso   1.000  Ir
  Ir9      1.0000 0.28439  0.00000  0.25000  Biso   1.000  Ir
  Ir10     1.0000 0.21561  0.00000  0.75000  Biso   1.000  Ir
  Ir11     1.0000 0.71561  0.00000  0.75000  Biso   1.000  Ir
  Ir12     1.0000 0.78439  0.00000  0.25000  Biso   1.000  Ir
  Ir13     1.0000 0.50000  0.25000  0.51497  Biso   1.000  Ir
  Ir14     1.0000 0.00000  0.25000  0.48503  Biso   1.000  Ir
  Ir15     1.0000 0.50000  0.75000  0.48503  Biso   1.000  Ir
  Ir16     1.0000 0.00000  0.75000  0.51497  Biso   1.000  Ir
