data_image0
_cell_length_a       16.6692
_cell_length_b       15.3732
_cell_length_c       22.5462
_cell_angle_alpha    90
_cell_angle_beta     90
_cell_angle_gamma    90

_symmetry_space_group_name_H-M    "P 1"
_symmetry_int_tables_number       1

loop_
  _symmetry_equiv_pos_as_xyz
  'x, y, z'

loop_
  _atom_site_label
  _atom_site_occupancy
  _atom_site_fract_x
  _atom_site_fract_y
  _atom_site_fract_z
  _atom_site_thermal_displace_type
  _atom_site_B_iso_or_equiv
  _atom_site_type_symbol
  O1       1.0000 0.50000  0.50069  0.16100  Biso   1.000  O
  O2       1.0000 0.50000  0.49931  0.66100  Biso   1.000  O
  O3       1.0000 0.50000  0.50069  0.33900  Biso   1.000  O
  O4       1.0000 0.50000  0.49931  0.83900  Biso   1.000  O
  O5       1.0000 0.14584  0.04391  0.75000  Biso   1.000  O
  O6       1.0000 0.85416  0.95609  0.25000  Biso   1.000  O
  O7       1.0000 0.85416  0.04391  0.75000  Biso   1.000  O
  O8       1.0000 0.14584  0.95609  0.25000  Biso   1.000  O
  O9       1.0000 0.37418  0.34774  0.12983  Biso   1.000  O
  O10      1.0000 0.62582  0.65226  0.62983  Biso   1.000  O
  O11      1.0000 0.62582  0.34774  0.37017  Biso   1.000  O
  O12      1.0000 0.37418  0.65226  0.87017  Biso   1.000  O
  O13      1.0000 0.62582  0.65226  0.87017  Biso   1.000  O
  O14      1.0000 0.37418  0.34774  0.37017  Biso   1.000  O
  O15      1.0000 0.37418  0.65226  0.62983  Biso   1.000  O
  O16      1.0000 0.62582  0.34774  0.12983  Biso   1.000  O
  O17      1.0000 0.81931  0.04908  0.12572  Biso   1.000  O
  O18      1.0000 0.18069  0.95092  0.62572  Biso   1.000  O
  O19      1.0000 0.18069  0.04908  0.37428  Biso   1.000  O
  O20      1.0000 0.81931  0.95092  0.87428  Biso   1.000  O
  O21      1.0000 0.18069  0.95092  0.87428  Biso   1.000  O
  O22      1.0000 0.81931  0.04908  0.37428  Biso   1.000  O
  O23      1.0000 0.81931  0.95092  0.62572  Biso   1.000  O
  O24      1.0000 0.18069  0.04908  0.12572  Biso   1.000  O
  O25      1.0000 0.35439  0.66793  0.01213  Biso   1.000  O
  O26      1.0000 0.64561  0.33207  0.51213  Biso   1.000  O
  O27      1.0000 0.64561  0.66793  0.48787  Biso   1.000  O
  O28      1.0000 0.35439  0.33207  0.98787  Biso   1.000  O
  O29      1.0000 0.64561  0.33207  0.98787  Biso   1.000  O
  O30      1.0000 0.35439  0.66793  0.48787  Biso   1.000  O
  O31      1.0000 0.35439  0.33207  0.51213  Biso   1.000  O
  O32      1.0000 0.64561  0.66793  0.01213  Biso   1.000  O
  O33      1.0000 0.50000  0.76450  0.94710  Biso   1.000  O
  O34      1.0000 0.50000  0.23550  0.44710  Biso   1.000  O
  O35      1.0000 0.50000  0.76450  0.55290  Biso   1.000  O
  O36      1.0000 0.50000  0.23550  0.05290  Biso   1.000  O
  O37      1.0000 0.32110  0.83349  0.92756  Biso   1.000  O
  O38      1.0000 0.67890  0.16651  0.42756  Biso   1.000  O
  O39      1.0000 0.67890  0.83349  0.57244  Biso   1.000  O
  O40      1.0000 0.32110  0.16651  0.07244  Biso   1.000  O
  O41      1.0000 0.67890  0.16651  0.07244  Biso   1.000  O
  O42      1.0000 0.32110  0.83349  0.57244  Biso   1.000  O
  O43      1.0000 0.32110  0.16651  0.42756  Biso   1.000  O
  O44      1.0000 0.67890  0.83349  0.92756  Biso   1.000  O
  O45      1.0000 0.26079  0.00000  0.00000  Biso   1.000  O
  O46      1.0000 0.73921  0.00000  0.50000  Biso   1.000  O
  O47      1.0000 0.73921  0.00000  0.00000  Biso   1.000  O
  O48      1.0000 0.26079  0.00000  0.50000  Biso   1.000  O
  O49      1.0000 0.00000  0.00069  0.16100  Biso   1.000  O
  O50      1.0000 0.00000  0.99931  0.66100  Biso   1.000  O
  O51      1.0000 0.00000  0.00069  0.33900  Biso   1.000  O
  O52      1.0000 0.00000  0.99931  0.83900  Biso   1.000  O
  O53      1.0000 0.64584  0.54391  0.75000  Biso   1.000  O
  O54      1.0000 0.35416  0.45609  0.25000  Biso   1.000  O
  O55      1.0000 0.35416  0.54391  0.75000  Biso   1.000  O
  O56      1.0000 0.64584  0.45609  0.25000  Biso   1.000  O
  O57      1.0000 0.87418  0.84774  0.12983  Biso   1.000  O
  O58      1.0000 0.12582  0.15226  0.62983  Biso   1.000  O
  O59      1.0000 0.12582  0.84774  0.37017  Biso   1.000  O
  O60      1.0000 0.87418  0.15226  0.87017  Biso   1.000  O
  O61      1.0000 0.12582  0.15226  0.87017  Biso   1.000  O
  O62      1.0000 0.87418  0.84774  0.37017  Biso   1.000  O
  O63      1.0000 0.87418  0.15226  0.62983  Biso   1.000  O
  O64      1.0000 0.12582  0.84774  0.12983  Biso   1.000  O
  O65      1.0000 0.31931  0.54908  0.12572  Biso   1.000  O
  O66      1.0000 0.68069  0.45092  0.62572  Biso   1.000  O
  O67      1.0000 0.68069  0.54908  0.37428  Biso   1.000  O
  O68      1.0000 0.31931  0.45092  0.87428  Biso   1.000  O
  O69      1.0000 0.68069  0.45092  0.87428  Biso   1.000  O
  O70      1.0000 0.31931  0.54908  0.37428  Biso   1.000  O
  O71      1.0000 0.31931  0.45092  0.62572  Biso   1.000  O
  O72      1.0000 0.68069  0.54908  0.12572  Biso   1.000  O
  O73      1.0000 0.85439  0.16793  0.01213  Biso   1.000  O
  O74      1.0000 0.14561  0.83207  0.51213  Biso   1.000  O
  O75      1.0000 0.14561  0.16793  0.48787  Biso   1.000  O
  O76      1.0000 0.85439  0.83207  0.98787  Biso   1.000  O
  O77      1.0000 0.14561  0.83207  0.98787  Biso   1.000  O
  O78      1.0000 0.85439  0.16793  0.48787  Biso   1.000  O
  O79      1.0000 0.85439  0.83207  0.51213  Biso   1.000  O
  O80      1.0000 0.14561  0.16793  0.01213  Biso   1.000  O
  O81      1.0000 0.00000  0.26450  0.94710  Biso   1.000  O
  O82      1.0000 0.00000  0.73550  0.44710  Biso   1.000  O
  O83      1.0000 0.00000  0.26450  0.55290  Biso   1.000  O
  O84      1.0000 0.00000  0.73550  0.05290  Biso   1.000  O
  O85      1.0000 0.82110  0.33349  0.92756  Biso   1.000  O
  O86      1.0000 0.17890  0.66651  0.42756  Biso   1.000  O
  O87      1.0000 0.17890  0.33349  0.57244  Biso   1.000  O
  O88      1.0000 0.82110  0.66651  0.07244  Biso   1.000  O
  O89      1.0000 0.17890  0.66651  0.07244  Biso   1.000  O
  O90      1.0000 0.82110  0.33349  0.57244  Biso   1.000  O
  O91      1.0000 0.82110  0.66651  0.42756  Biso   1.000  O
  O92      1.0000 0.17890  0.33349  0.92756  Biso   1.000  O
  O93      1.0000 0.76079  0.50000  0.00000  Biso   1.000  O
  O94      1.0000 0.23921  0.50000  0.50000  Biso   1.000  O
  O95      1.0000 0.23921  0.50000  0.00000  Biso   1.000  O
  O96      1.0000 0.76079  0.50000  0.50000  Biso   1.000  O
  Ir1      1.0000 0.88707  0.96332  0.16656  Biso   1.000  Ir
  Ir2      1.0000 0.11293  0.03668  0.66656  Biso   1.000  Ir
  Ir3      1.0000 0.11293  0.96332  0.33344  Biso   1.000  Ir
  Ir4      1.0000 0.88707  0.03668  0.83344  Biso   1.000  Ir
  Ir5      1.0000 0.11293  0.03668  0.83344  Biso   1.000  Ir
  Ir6      1.0000 0.88707  0.96332  0.33344  Biso   1.000  Ir
  Ir7      1.0000 0.88707  0.03668  0.66656  Biso   1.000  Ir
  Ir8      1.0000 0.11293  0.96332  0.16656  Biso   1.000  Ir
  Ir9      1.0000 0.38716  0.72921  0.93919  Biso   1.000  Ir
  Ir10     1.0000 0.61284  0.27079  0.43919  Biso   1.000  Ir
  Ir11     1.0000 0.61284  0.72921  0.56081  Biso   1.000  Ir
  Ir12     1.0000 0.38716  0.27079  0.06081  Biso   1.000  Ir
  Ir13     1.0000 0.61284  0.27079  0.06081  Biso   1.000  Ir
  Ir14     1.0000 0.38716  0.72921  0.56081  Biso   1.000  Ir
  Ir15     1.0000 0.38716  0.27079  0.43919  Biso   1.000  Ir
  Ir16     1.0000 0.61284  0.72921  0.93919  Biso   1.000  Ir
  Ir17     1.0000 0.22698  0.09584  0.05243  Biso   1.000  Ir
  Ir18     1.0000 0.77302  0.90416  0.55243  Biso   1.000  Ir
  Ir19     1.0000 0.77302  0.09584  0.44757  Biso   1.000  Ir
  Ir20     1.0000 0.22698  0.90416  0.94757  Biso   1.000  Ir
  Ir21     1.0000 0.77302  0.90416  0.94757  Biso   1.000  Ir
  Ir22     1.0000 0.22698  0.09584  0.44757  Biso   1.000  Ir
  Ir23     1.0000 0.22698  0.90416  0.55243  Biso   1.000  Ir
  Ir24     1.0000 0.77302  0.09584  0.05243  Biso   1.000  Ir
  Ir25     1.0000 0.38707  0.46332  0.16656  Biso   1.000  Ir
  Ir26     1.0000 0.61293  0.53668  0.66656  Biso   1.000  Ir
  Ir27     1.0000 0.61293  0.46332  0.33344  Biso   1.000  Ir
  Ir28     1.0000 0.38707  0.53668  0.83344  Biso   1.000  Ir
  Ir29     1.0000 0.61293  0.53668  0.83344  Biso   1.000  Ir
  Ir30     1.0000 0.38707  0.46332  0.33344  Biso   1.000  Ir
  Ir31     1.0000 0.38707  0.53668  0.66656  Biso   1.000  Ir
  Ir32     1.0000 0.61293  0.46332  0.16656  Biso   1.000  Ir
  Ir33     1.0000 0.88716  0.22921  0.93919  Biso   1.000  Ir
  Ir34     1.0000 0.11284  0.77079  0.43919  Biso   1.000  Ir
  Ir35     1.0000 0.11284  0.22921  0.56081  Biso   1.000  Ir
  Ir36     1.0000 0.88716  0.77079  0.06081  Biso   1.000  Ir
  Ir37     1.0000 0.11284  0.77079  0.06081  Biso   1.000  Ir
  Ir38     1.0000 0.88716  0.22921  0.56081  Biso   1.000  Ir
  Ir39     1.0000 0.88716  0.77079  0.43919  Biso   1.000  Ir
  Ir40     1.0000 0.11284  0.22921  0.93919  Biso   1.000  Ir
  Ir41     1.0000 0.72698  0.59584  0.05243  Biso   1.000  Ir
  Ir42     1.0000 0.27302  0.40416  0.55243  Biso   1.000  Ir
  Ir43     1.0000 0.27302  0.59584  0.44757  Biso   1.000  Ir
  Ir44     1.0000 0.72698  0.40416  0.94757  Biso   1.000  Ir
  Ir45     1.0000 0.27302  0.40416  0.94757  Biso   1.000  Ir
  Ir46     1.0000 0.72698  0.59584  0.44757  Biso   1.000  Ir
  Ir47     1.0000 0.72698  0.40416  0.55243  Biso   1.000  Ir
  Ir48     1.0000 0.27302  0.59584  0.05243  Biso   1.000  Ir
