data_image0
_cell_length_a       2.80073
_cell_length_b       3.19641
_cell_length_c       3.71195
_cell_angle_alpha    101.875
_cell_angle_beta     96.6244
_cell_angle_gamma    113.581

_symmetry_space_group_name_H-M    "P 1"
_symmetry_int_tables_number       1

loop_
  _symmetry_equiv_pos_as_xyz
  'x, y, z'

loop_
  _atom_site_label
  _atom_site_occupancy
  _atom_site_fract_x
  _atom_site_fract_y
  _atom_site_fract_z
  _atom_site_thermal_displace_type
  _atom_site_B_iso_or_equiv
  _atom_site_type_symbol
  Ir1      1.0000 0.50003  0.00028  0.00000  Biso   1.000  Ir
  O1       1.0000 0.88684  0.77430  0.25832  Biso   1.000  O
  O2       1.0000 0.11323  0.22594  0.74197  Biso   1.000  O
