data_image0
_cell_length_a       4.91579
_cell_length_b       5.62564
_cell_length_c       5.75212
_cell_angle_alpha    100.968
_cell_angle_beta     92.3473
_cell_angle_gamma    110.394

_symmetry_space_group_name_H-M    "P 1"
_symmetry_int_tables_number       1

loop_
  _symmetry_equiv_pos_as_xyz
  'x, y, z'

loop_
  _atom_site_label
  _atom_site_occupancy
  _atom_site_fract_x
  _atom_site_fract_y
  _atom_site_fract_z
  _atom_site_thermal_displace_type
  _atom_site_B_iso_or_equiv
  _atom_site_type_symbol
  O1       1.0000 0.16071  0.82155  0.81943  Biso   1.000  O
  O2       1.0000 0.83929  0.17845  0.18057  Biso   1.000  O
  O3       1.0000 0.41296  0.32574  0.69538  Biso   1.000  O
  O4       1.0000 0.58704  0.67426  0.30462  Biso   1.000  O
  Ir1      1.0000 0.23025  0.96047  0.35053  Biso   1.000  Ir
  Ir2      1.0000 0.76975  0.03952  0.64947  Biso   1.000  Ir
