data_image0
_cell_length_a       11.2207
_cell_length_b       11.2392
_cell_length_c       11.4865
_cell_angle_alpha    80.3231
_cell_angle_beta     79.3675
_cell_angle_gamma    65.9753

_symmetry_space_group_name_H-M    "P 1"
_symmetry_int_tables_number       1

loop_
  _symmetry_equiv_pos_as_xyz
  'x, y, z'

loop_
  _atom_site_label
  _atom_site_occupancy
  _atom_site_fract_x
  _atom_site_fract_y
  _atom_site_fract_z
  _atom_site_thermal_displace_type
  _atom_site_B_iso_or_equiv
  _atom_site_type_symbol
  O1       1.0000 0.33293  0.45605  0.07476  Biso   1.000  O
  O2       1.0000 0.81477  0.48495  0.08421  Biso   1.000  O
  O3       1.0000 0.70897  0.25020  0.13829  Biso   1.000  O
  O4       1.0000 0.20929  0.23715  0.14921  Biso   1.000  O
  O5       1.0000 0.86219  0.92401  0.25478  Biso   1.000  O
  O6       1.0000 0.30904  0.92172  0.27062  Biso   1.000  O
  O7       1.0000 0.00905  0.57265  0.27487  Biso   1.000  O
  O8       1.0000 0.96682  0.14859  0.28608  Biso   1.000  O
  O9       1.0000 0.50609  0.57250  0.28948  Biso   1.000  O
  O10      1.0000 0.15314  0.73368  0.36848  Biso   1.000  O
  O11      1.0000 0.65073  0.21334  0.46377  Biso   1.000  O
  O12      1.0000 0.12104  0.21366  0.47571  Biso   1.000  O
  O13      1.0000 0.84461  0.78013  0.54984  Biso   1.000  O
  O14      1.0000 0.31900  0.77364  0.56482  Biso   1.000  O
  O15      1.0000 0.81708  0.25279  0.65893  Biso   1.000  O
  O16      1.0000 1.00000  0.84653  0.73677  Biso   1.000  O
  O17      1.0000 0.46483  0.42106  0.74129  Biso   1.000  O
  O18      1.0000 0.96027  0.41570  0.75022  Biso   1.000  O
  O19      1.0000 0.65459  0.06978  0.75868  Biso   1.000  O
  O20      1.0000 0.10872  0.06540  0.77010  Biso   1.000  O
  O21      1.0000 0.77251  0.74651  0.87716  Biso   1.000  O
  O22      1.0000 0.25518  0.74619  0.89204  Biso   1.000  O
  O23      1.0000 0.08758  0.50739  0.94481  Biso   1.000  O
  O24      1.0000 0.57059  0.53325  0.95233  Biso   1.000  O
  Ir1      1.0000 0.15709  0.44130  0.11405  Biso   1.000  Ir
  Ir2      1.0000 0.64453  0.46137  0.11837  Biso   1.000  Ir
  Ir3      1.0000 0.79804  0.13244  0.28566  Biso   1.000  Ir
  Ir4      1.0000 0.15002  0.13147  0.29484  Biso   1.000  Ir
  Ir5      1.0000 0.96829  0.75229  0.36228  Biso   1.000  Ir
  Ir6      1.0000 0.32055  0.75029  0.37306  Biso   1.000  Ir
  Ir7      1.0000 0.64767  0.23954  0.65513  Biso   1.000  Ir
  Ir8      1.0000 0.00055  0.23725  0.66414  Biso   1.000  Ir
  Ir9      1.0000 0.81681  0.86156  0.73108  Biso   1.000  Ir
  Ir10     1.0000 0.17007  0.85738  0.74114  Biso   1.000  Ir
  Ir11     1.0000 0.40305  0.53938  0.91127  Biso   1.000  Ir
  Ir12     1.0000 0.90566  0.53899  0.91242  Biso   1.000  Ir
