data_image0
_cell_length_a       25.6846
_cell_length_b       23.9033
_cell_length_c       16.8164
_cell_angle_alpha    90
_cell_angle_beta     102.467
_cell_angle_gamma    90

_symmetry_space_group_name_H-M    "P 1"
_symmetry_int_tables_number       1

loop_
  _symmetry_equiv_pos_as_xyz
  'x, y, z'

loop_
  _atom_site_label
  _atom_site_occupancy
  _atom_site_fract_x
  _atom_site_fract_y
  _atom_site_fract_z
  _atom_site_thermal_displace_type
  _atom_site_B_iso_or_equiv
  _atom_site_type_symbol
  O1       1.0000 0.22388  0.76661  0.88190  Biso   1.000  O
  O2       1.0000 0.77612  0.76661  0.61810  Biso   1.000  O
  O3       1.0000 0.77612  0.23339  0.11810  Biso   1.000  O
  O4       1.0000 0.22388  0.23339  0.38190  Biso   1.000  O
  O5       1.0000 0.76285  0.52338  0.80171  Biso   1.000  O
  O6       1.0000 0.23715  0.52338  0.69829  Biso   1.000  O
  O7       1.0000 0.23715  0.47662  0.19829  Biso   1.000  O
  O8       1.0000 0.76285  0.47662  0.30171  Biso   1.000  O
  O9       1.0000 0.83544  0.49365  0.99642  Biso   1.000  O
  O10      1.0000 0.16456  0.49365  0.50358  Biso   1.000  O
  O11      1.0000 0.16456  0.50635  0.00358  Biso   1.000  O
  O12      1.0000 0.83544  0.50635  0.49642  Biso   1.000  O
  O13      1.0000 0.98876  0.65929  0.49325  Biso   1.000  O
  O14      1.0000 0.01124  0.65929  0.00675  Biso   1.000  O
  O15      1.0000 0.01124  0.34071  0.50675  Biso   1.000  O
  O16      1.0000 0.98876  0.34071  0.99325  Biso   1.000  O
  O17      1.0000 0.29359  0.41469  0.62348  Biso   1.000  O
  O18      1.0000 0.70641  0.41469  0.87653  Biso   1.000  O
  O19      1.0000 0.70641  0.58531  0.37653  Biso   1.000  O
  O20      1.0000 0.29359  0.58531  0.12348  Biso   1.000  O
  O21      1.0000 0.17061  0.45762  0.33124  Biso   1.000  O
  O22      1.0000 0.82939  0.45762  0.16876  Biso   1.000  O
  O23      1.0000 0.82939  0.54238  0.66876  Biso   1.000  O
  O24      1.0000 0.17061  0.54238  0.83124  Biso   1.000  O
  O25      1.0000 0.92262  0.17156  0.19116  Biso   1.000  O
  O26      1.0000 0.07738  0.17156  0.30884  Biso   1.000  O
  O27      1.0000 0.07738  0.82844  0.80884  Biso   1.000  O
  O28      1.0000 0.92262  0.82844  0.69116  Biso   1.000  O
  O29      1.0000 0.15012  0.40011  0.63712  Biso   1.000  O
  O30      1.0000 0.84988  0.40011  0.86288  Biso   1.000  O
  O31      1.0000 0.84988  0.59989  0.36288  Biso   1.000  O
  O32      1.0000 0.15012  0.59989  0.13712  Biso   1.000  O
  O33      1.0000 0.74245  0.64947  0.70475  Biso   1.000  O
  O34      1.0000 0.25755  0.64947  0.79525  Biso   1.000  O
  O35      1.0000 0.25755  0.35053  0.29525  Biso   1.000  O
  O36      1.0000 0.74245  0.35053  0.20475  Biso   1.000  O
  O37      1.0000 0.93611  0.55827  0.16161  Biso   1.000  O
  O38      1.0000 0.06389  0.55827  0.33839  Biso   1.000  O
  O39      1.0000 0.06389  0.44173  0.83839  Biso   1.000  O
  O40      1.0000 0.93611  0.44173  0.66161  Biso   1.000  O
  O41      1.0000 0.98291  0.27742  0.33101  Biso   1.000  O
  O42      1.0000 0.01709  0.27742  0.16899  Biso   1.000  O
  O43      1.0000 0.01709  0.72258  0.66899  Biso   1.000  O
  O44      1.0000 0.98291  0.72258  0.83101  Biso   1.000  O
  O45      1.0000 0.67019  0.66561  0.50578  Biso   1.000  O
  O46      1.0000 0.32981  0.66561  0.99422  Biso   1.000  O
  O47      1.0000 0.32981  0.33439  0.49422  Biso   1.000  O
  O48      1.0000 0.67019  0.33439  0.00578  Biso   1.000  O
  O49      1.0000 0.88984  0.38762  0.34480  Biso   1.000  O
  O50      1.0000 0.11016  0.38762  0.15520  Biso   1.000  O
  O51      1.0000 0.11016  0.61238  0.65520  Biso   1.000  O
  O52      1.0000 0.88984  0.61238  0.84480  Biso   1.000  O
  O53      1.0000 0.04365  0.41441  0.36815  Biso   1.000  O
  O54      1.0000 0.95635  0.41441  0.13185  Biso   1.000  O
  O55      1.0000 0.95635  0.58559  0.63185  Biso   1.000  O
  O56      1.0000 0.04365  0.58559  0.86815  Biso   1.000  O
  O57      1.0000 0.95199  0.33578  0.79773  Biso   1.000  O
  O58      1.0000 0.04801  0.33578  0.70227  Biso   1.000  O
  O59      1.0000 0.04801  0.66422  0.20227  Biso   1.000  O
  O60      1.0000 0.95199  0.66422  0.29773  Biso   1.000  O
  O61      1.0000 0.13057  0.74730  0.12683  Biso   1.000  O
  O62      1.0000 0.86943  0.74730  0.37317  Biso   1.000  O
  O63      1.0000 0.86943  0.25270  0.87317  Biso   1.000  O
  O64      1.0000 0.13057  0.25270  0.62683  Biso   1.000  O
  O65      1.0000 0.72388  0.26661  0.88190  Biso   1.000  O
  O66      1.0000 0.27612  0.26661  0.61810  Biso   1.000  O
  O67      1.0000 0.27612  0.73339  0.11810  Biso   1.000  O
  O68      1.0000 0.72388  0.73339  0.38190  Biso   1.000  O
  O69      1.0000 0.26285  0.02338  0.80171  Biso   1.000  O
  O70      1.0000 0.73715  0.02338  0.69829  Biso   1.000  O
  O71      1.0000 0.73715  0.97662  0.19829  Biso   1.000  O
  O72      1.0000 0.26285  0.97662  0.30171  Biso   1.000  O
  O73      1.0000 0.33544  0.99365  0.99642  Biso   1.000  O
  O74      1.0000 0.66456  0.99365  0.50358  Biso   1.000  O
  O75      1.0000 0.66456  0.00635  0.00358  Biso   1.000  O
  O76      1.0000 0.33544  0.00635  0.49642  Biso   1.000  O
  O77      1.0000 0.48875  0.15929  0.49325  Biso   1.000  O
  O78      1.0000 0.51124  0.15929  0.00675  Biso   1.000  O
  O79      1.0000 0.51124  0.84071  0.50675  Biso   1.000  O
  O80      1.0000 0.48875  0.84071  0.99325  Biso   1.000  O
  O81      1.0000 0.79359  0.91469  0.62348  Biso   1.000  O
  O82      1.0000 0.20641  0.91469  0.87653  Biso   1.000  O
  O83      1.0000 0.20641  0.08531  0.37653  Biso   1.000  O
  O84      1.0000 0.79359  0.08531  0.12348  Biso   1.000  O
  O85      1.0000 0.67061  0.95762  0.33124  Biso   1.000  O
  O86      1.0000 0.32939  0.95762  0.16876  Biso   1.000  O
  O87      1.0000 0.32939  0.04238  0.66876  Biso   1.000  O
  O88      1.0000 0.67061  0.04238  0.83124  Biso   1.000  O
  O89      1.0000 0.42262  0.67156  0.19116  Biso   1.000  O
  O90      1.0000 0.57738  0.67156  0.30884  Biso   1.000  O
  O91      1.0000 0.57738  0.32844  0.80884  Biso   1.000  O
  O92      1.0000 0.42262  0.32844  0.69116  Biso   1.000  O
  O93      1.0000 0.65012  0.90011  0.63712  Biso   1.000  O
  O94      1.0000 0.34988  0.90011  0.86288  Biso   1.000  O
  O95      1.0000 0.34988  0.09989  0.36288  Biso   1.000  O
  O96      1.0000 0.65012  0.09989  0.13712  Biso   1.000  O
  O97      1.0000 0.24245  0.14947  0.70475  Biso   1.000  O
  O98      1.0000 0.75755  0.14947  0.79525  Biso   1.000  O
  O99      1.0000 0.75755  0.85053  0.29525  Biso   1.000  O
  O100     1.0000 0.24245  0.85053  0.20475  Biso   1.000  O
  O101     1.0000 0.43611  0.05827  0.16161  Biso   1.000  O
  O102     1.0000 0.56389  0.05827  0.33839  Biso   1.000  O
  O103     1.0000 0.56389  0.94173  0.83839  Biso   1.000  O
  O104     1.0000 0.43611  0.94173  0.66161  Biso   1.000  O
  O105     1.0000 0.48291  0.77742  0.33101  Biso   1.000  O
  O106     1.0000 0.51709  0.77742  0.16899  Biso   1.000  O
  O107     1.0000 0.51709  0.22258  0.66899  Biso   1.000  O
  O108     1.0000 0.48291  0.22258  0.83101  Biso   1.000  O
  O109     1.0000 0.17019  0.16561  0.50578  Biso   1.000  O
  O110     1.0000 0.82981  0.16561  0.99422  Biso   1.000  O
  O111     1.0000 0.82981  0.83439  0.49422  Biso   1.000  O
  O112     1.0000 0.17019  0.83439  0.00578  Biso   1.000  O
  O113     1.0000 0.38984  0.88762  0.34480  Biso   1.000  O
  O114     1.0000 0.61016  0.88762  0.15520  Biso   1.000  O
  O115     1.0000 0.61016  0.11238  0.65520  Biso   1.000  O
  O116     1.0000 0.38985  0.11238  0.84480  Biso   1.000  O
  O117     1.0000 0.54365  0.91441  0.36815  Biso   1.000  O
  O118     1.0000 0.45635  0.91441  0.13185  Biso   1.000  O
  O119     1.0000 0.45635  0.08559  0.63185  Biso   1.000  O
  O120     1.0000 0.54365  0.08559  0.86815  Biso   1.000  O
  O121     1.0000 0.45199  0.83578  0.79773  Biso   1.000  O
  O122     1.0000 0.54801  0.83578  0.70227  Biso   1.000  O
  O123     1.0000 0.54801  0.16422  0.20227  Biso   1.000  O
  O124     1.0000 0.45199  0.16422  0.29773  Biso   1.000  O
  O125     1.0000 0.63057  0.24730  0.12683  Biso   1.000  O
  O126     1.0000 0.36942  0.24730  0.37317  Biso   1.000  O
  O127     1.0000 0.36942  0.75270  0.87317  Biso   1.000  O
  O128     1.0000 0.63057  0.75270  0.62683  Biso   1.000  O
  Ir1      1.0000 0.98223  0.64471  0.88730  Biso   1.000  Ir
  Ir2      1.0000 0.01777  0.64471  0.61270  Biso   1.000  Ir
  Ir3      1.0000 0.01777  0.35529  0.11270  Biso   1.000  Ir
  Ir4      1.0000 0.98223  0.35529  0.38730  Biso   1.000  Ir
  Ir5      1.0000 0.33021  0.66424  0.10638  Biso   1.000  Ir
  Ir6      1.0000 0.66979  0.66424  0.39362  Biso   1.000  Ir
  Ir7      1.0000 0.66979  0.33576  0.89362  Biso   1.000  Ir
  Ir8      1.0000 0.33021  0.33576  0.60638  Biso   1.000  Ir
  Ir9      1.0000 0.80670  0.58221  0.75456  Biso   1.000  Ir
  Ir10     1.0000 0.19330  0.58221  0.74544  Biso   1.000  Ir
  Ir11     1.0000 0.19330  0.41779  0.24544  Biso   1.000  Ir
  Ir12     1.0000 0.80670  0.41779  0.25456  Biso   1.000  Ir
  Ir13     1.0000 0.08517  0.33237  0.61766  Biso   1.000  Ir
  Ir14     1.0000 0.91483  0.33237  0.88235  Biso   1.000  Ir
  Ir15     1.0000 0.91483  0.66763  0.38235  Biso   1.000  Ir
  Ir16     1.0000 0.08517  0.66763  0.11766  Biso   1.000  Ir
  Ir17     1.0000 0.78885  0.45753  0.88513  Biso   1.000  Ir
  Ir18     1.0000 0.21115  0.45753  0.61487  Biso   1.000  Ir
  Ir19     1.0000 0.21115  0.54247  0.11487  Biso   1.000  Ir
  Ir20     1.0000 0.78885  0.54247  0.38513  Biso   1.000  Ir
  Ir21     1.0000 0.20482  0.20877  0.61351  Biso   1.000  Ir
  Ir22     1.0000 0.79518  0.20877  0.88649  Biso   1.000  Ir
  Ir23     1.0000 0.79518  0.79123  0.38649  Biso   1.000  Ir
  Ir24     1.0000 0.20482  0.79123  0.11351  Biso   1.000  Ir
  Ir25     1.0000 0.88983  0.48080  0.11522  Biso   1.000  Ir
  Ir26     1.0000 0.11017  0.48080  0.38478  Biso   1.000  Ir
  Ir27     1.0000 0.11017  0.51920  0.88478  Biso   1.000  Ir
  Ir28     1.0000 0.88983  0.51920  0.61522  Biso   1.000  Ir
  Ir29     1.0000 0.00000  0.38952  0.75000  Biso   1.000  Ir
  Ir30     1.0000 0.00000  0.61048  0.25000  Biso   1.000  Ir
  Ir31     1.0000 0.00000  0.77457  0.75000  Biso   1.000  Ir
  Ir32     1.0000 0.00000  0.22543  0.25000  Biso   1.000  Ir
  Ir33     1.0000 0.48223  0.14471  0.88730  Biso   1.000  Ir
  Ir34     1.0000 0.51777  0.14471  0.61270  Biso   1.000  Ir
  Ir35     1.0000 0.51777  0.85529  0.11270  Biso   1.000  Ir
  Ir36     1.0000 0.48223  0.85529  0.38730  Biso   1.000  Ir
  Ir37     1.0000 0.83021  0.16424  0.10638  Biso   1.000  Ir
  Ir38     1.0000 0.16979  0.16424  0.39362  Biso   1.000  Ir
  Ir39     1.0000 0.16979  0.83577  0.89362  Biso   1.000  Ir
  Ir40     1.0000 0.83021  0.83577  0.60638  Biso   1.000  Ir
  Ir41     1.0000 0.30670  0.08221  0.75456  Biso   1.000  Ir
  Ir42     1.0000 0.69330  0.08221  0.74544  Biso   1.000  Ir
  Ir43     1.0000 0.69330  0.91779  0.24544  Biso   1.000  Ir
  Ir44     1.0000 0.30670  0.91779  0.25456  Biso   1.000  Ir
  Ir45     1.0000 0.58517  0.83237  0.61766  Biso   1.000  Ir
  Ir46     1.0000 0.41483  0.83237  0.88235  Biso   1.000  Ir
  Ir47     1.0000 0.41483  0.16763  0.38235  Biso   1.000  Ir
  Ir48     1.0000 0.58517  0.16763  0.11766  Biso   1.000  Ir
  Ir49     1.0000 0.28885  0.95753  0.88513  Biso   1.000  Ir
  Ir50     1.0000 0.71115  0.95753  0.61487  Biso   1.000  Ir
  Ir51     1.0000 0.71115  0.04247  0.11487  Biso   1.000  Ir
  Ir52     1.0000 0.28885  0.04247  0.38513  Biso   1.000  Ir
  Ir53     1.0000 0.70482  0.70877  0.61351  Biso   1.000  Ir
  Ir54     1.0000 0.29518  0.70877  0.88649  Biso   1.000  Ir
  Ir55     1.0000 0.29518  0.29123  0.38649  Biso   1.000  Ir
  Ir56     1.0000 0.70482  0.29123  0.11351  Biso   1.000  Ir
  Ir57     1.0000 0.38983  0.98080  0.11522  Biso   1.000  Ir
  Ir58     1.0000 0.61017  0.98080  0.38478  Biso   1.000  Ir
  Ir59     1.0000 0.61017  0.01920  0.88478  Biso   1.000  Ir
  Ir60     1.0000 0.38983  0.01920  0.61522  Biso   1.000  Ir
  Ir61     1.0000 0.50000  0.88952  0.75000  Biso   1.000  Ir
  Ir62     1.0000 0.50000  0.11048  0.25000  Biso   1.000  Ir
  Ir63     1.0000 0.50000  0.27457  0.75000  Biso   1.000  Ir
  Ir64     1.0000 0.50000  0.72543  0.25000  Biso   1.000  Ir
