data_image0
_cell_length_a       10.4446
_cell_length_b       10.4446
_cell_length_c       14.1851
_cell_angle_alpha    90
_cell_angle_beta     90
_cell_angle_gamma    90

_symmetry_space_group_name_H-M    "P 1"
_symmetry_int_tables_number       1

loop_
  _symmetry_equiv_pos_as_xyz
  'x, y, z'

loop_
  _atom_site_label
  _atom_site_occupancy
  _atom_site_fract_x
  _atom_site_fract_y
  _atom_site_fract_z
  _atom_site_thermal_displace_type
  _atom_site_B_iso_or_equiv
  _atom_site_type_symbol
  O1       1.0000 0.53900  0.74798  0.28148  Biso   1.000  O
  O2       1.0000 0.96100  0.75202  0.78148  Biso   1.000  O
  O3       1.0000 0.25202  0.03900  0.53148  Biso   1.000  O
  O4       1.0000 0.74798  0.96100  0.53148  Biso   1.000  O
  O5       1.0000 0.96100  0.74798  0.96852  Biso   1.000  O
  O6       1.0000 0.53900  0.75202  0.46852  Biso   1.000  O
  O7       1.0000 0.74798  0.53900  0.21852  Biso   1.000  O
  O8       1.0000 0.75202  0.96100  0.71852  Biso   1.000  O
  O9       1.0000 0.96100  0.25202  0.46852  Biso   1.000  O
  O10      1.0000 0.03900  0.74798  0.46852  Biso   1.000  O
  O11      1.0000 0.74798  0.46100  0.71852  Biso   1.000  O
  O12      1.0000 0.75202  0.03900  0.21852  Biso   1.000  O
  O13      1.0000 0.53900  0.25202  0.78148  Biso   1.000  O
  O14      1.0000 0.96100  0.24798  0.28148  Biso   1.000  O
  O15      1.0000 0.75202  0.46100  0.53148  Biso   1.000  O
  O16      1.0000 0.74798  0.03900  0.03148  Biso   1.000  O
  O17      1.0000 0.03900  0.24798  0.78148  Biso   1.000  O
  O18      1.0000 0.46100  0.25202  0.28148  Biso   1.000  O
  O19      1.0000 0.75202  0.53900  0.03148  Biso   1.000  O
  O20      1.0000 0.24798  0.46100  0.03148  Biso   1.000  O
  O21      1.0000 0.46100  0.24798  0.46852  Biso   1.000  O
  O22      1.0000 0.03900  0.25202  0.96852  Biso   1.000  O
  O23      1.0000 0.24798  0.03900  0.71852  Biso   1.000  O
  O24      1.0000 0.25202  0.46100  0.21852  Biso   1.000  O
  O25      1.0000 0.46100  0.75202  0.96852  Biso   1.000  O
  O26      1.0000 0.53900  0.24798  0.96852  Biso   1.000  O
  O27      1.0000 0.24798  0.96100  0.21852  Biso   1.000  O
  O28      1.0000 0.25202  0.53900  0.71852  Biso   1.000  O
  O29      1.0000 0.03900  0.75202  0.28148  Biso   1.000  O
  O30      1.0000 0.46100  0.74798  0.78148  Biso   1.000  O
  O31      1.0000 0.25202  0.96100  0.03148  Biso   1.000  O
  O32      1.0000 0.24798  0.53900  0.53148  Biso   1.000  O
  Ir1      1.0000 0.75000  0.92173  0.12500  Biso   1.000  Ir
  Ir2      1.0000 0.75000  0.57827  0.62500  Biso   1.000  Ir
  Ir3      1.0000 0.07827  0.25000  0.37500  Biso   1.000  Ir
  Ir4      1.0000 0.92173  0.75000  0.37500  Biso   1.000  Ir
  Ir5      1.0000 0.75000  0.07827  0.62500  Biso   1.000  Ir
  Ir6      1.0000 0.25000  0.92173  0.62500  Biso   1.000  Ir
  Ir7      1.0000 0.42173  0.75000  0.37500  Biso   1.000  Ir
  Ir8      1.0000 0.07827  0.75000  0.87500  Biso   1.000  Ir
  Ir9      1.0000 0.25000  0.42173  0.62500  Biso   1.000  Ir
  Ir10     1.0000 0.25000  0.07827  0.12500  Biso   1.000  Ir
  Ir11     1.0000 0.57827  0.75000  0.87500  Biso   1.000  Ir
  Ir12     1.0000 0.42173  0.25000  0.87500  Biso   1.000  Ir
  Ir13     1.0000 0.25000  0.57827  0.12500  Biso   1.000  Ir
  Ir14     1.0000 0.75000  0.42173  0.12500  Biso   1.000  Ir
  Ir15     1.0000 0.92173  0.25000  0.87500  Biso   1.000  Ir
  Ir16     1.0000 0.57827  0.25000  0.37500  Biso   1.000  Ir
