data_image0
_cell_length_a       24.3442
_cell_length_b       24.3442
_cell_length_c       16.4533
_cell_angle_alpha    90
_cell_angle_beta     90
_cell_angle_gamma    90

_symmetry_space_group_name_H-M    "P 1"
_symmetry_int_tables_number       1

loop_
  _symmetry_equiv_pos_as_xyz
  'x, y, z'

loop_
  _atom_site_label
  _atom_site_occupancy
  _atom_site_fract_x
  _atom_site_fract_y
  _atom_site_fract_z
  _atom_site_thermal_displace_type
  _atom_site_B_iso_or_equiv
  _atom_site_type_symbol
  O1       1.0000 0.73699  0.31581  0.58281  Biso   1.000  O
  O2       1.0000 0.26301  0.68419  0.58281  Biso   1.000  O
  O3       1.0000 0.81581  0.76301  0.91719  Biso   1.000  O
  O4       1.0000 0.18419  0.23699  0.91719  Biso   1.000  O
  O5       1.0000 0.73699  0.68419  0.58281  Biso   1.000  O
  O6       1.0000 0.26301  0.31581  0.58281  Biso   1.000  O
  O7       1.0000 0.81581  0.23699  0.91719  Biso   1.000  O
  O8       1.0000 0.18419  0.76301  0.91719  Biso   1.000  O
  O9       1.0000 0.40775  0.50000  0.98339  Biso   1.000  O
  O10      1.0000 0.59225  0.50000  0.98339  Biso   1.000  O
  O11      1.0000 0.00000  0.09225  0.51661  Biso   1.000  O
  O12      1.0000 0.00000  0.90775  0.51661  Biso   1.000  O
  O13      1.0000 0.07929  0.62007  0.44067  Biso   1.000  O
  O14      1.0000 0.92071  0.37993  0.44067  Biso   1.000  O
  O15      1.0000 0.12007  0.42071  0.05933  Biso   1.000  O
  O16      1.0000 0.87993  0.57929  0.05933  Biso   1.000  O
  O17      1.0000 0.07929  0.37993  0.44067  Biso   1.000  O
  O18      1.0000 0.92071  0.62007  0.44067  Biso   1.000  O
  O19      1.0000 0.12007  0.57929  0.05933  Biso   1.000  O
  O20      1.0000 0.87993  0.42071  0.05933  Biso   1.000  O
  O21      1.0000 0.38190  0.39445  0.09637  Biso   1.000  O
  O22      1.0000 0.61810  0.60555  0.09637  Biso   1.000  O
  O23      1.0000 0.89445  0.11810  0.40363  Biso   1.000  O
  O24      1.0000 0.10555  0.88190  0.40363  Biso   1.000  O
  O25      1.0000 0.38190  0.60555  0.09637  Biso   1.000  O
  O26      1.0000 0.61810  0.39445  0.09637  Biso   1.000  O
  O27      1.0000 0.89445  0.88190  0.40363  Biso   1.000  O
  O28      1.0000 0.10555  0.11810  0.40363  Biso   1.000  O
  O29      1.0000 0.19599  0.63004  0.91677  Biso   1.000  O
  O30      1.0000 0.80401  0.36996  0.91677  Biso   1.000  O
  O31      1.0000 0.13004  0.30401  0.58323  Biso   1.000  O
  O32      1.0000 0.86996  0.69599  0.58323  Biso   1.000  O
  O33      1.0000 0.19599  0.36996  0.91677  Biso   1.000  O
  O34      1.0000 0.80401  0.63004  0.91677  Biso   1.000  O
  O35      1.0000 0.13004  0.69599  0.58323  Biso   1.000  O
  O36      1.0000 0.86996  0.30401  0.58323  Biso   1.000  O
  O37      1.0000 0.20122  0.79169  0.37759  Biso   1.000  O
  O38      1.0000 0.79878  0.20831  0.37759  Biso   1.000  O
  O39      1.0000 0.29169  0.29878  0.12241  Biso   1.000  O
  O40      1.0000 0.70831  0.70122  0.12241  Biso   1.000  O
  O41      1.0000 0.20122  0.20831  0.37759  Biso   1.000  O
  O42      1.0000 0.79878  0.79169  0.37759  Biso   1.000  O
  O43      1.0000 0.29169  0.70122  0.12241  Biso   1.000  O
  O44      1.0000 0.70831  0.29878  0.12241  Biso   1.000  O
  O45      1.0000 0.88019  0.50000  0.38925  Biso   1.000  O
  O46      1.0000 0.11982  0.50000  0.38925  Biso   1.000  O
  O47      1.0000 0.00000  0.61982  0.11075  Biso   1.000  O
  O48      1.0000 0.00000  0.38019  0.11075  Biso   1.000  O
  O49      1.0000 0.19613  0.39328  0.35589  Biso   1.000  O
  O50      1.0000 0.80387  0.60672  0.35589  Biso   1.000  O
  O51      1.0000 0.89328  0.30387  0.14411  Biso   1.000  O
  O52      1.0000 0.10672  0.69614  0.14411  Biso   1.000  O
  O53      1.0000 0.19613  0.60672  0.35589  Biso   1.000  O
  O54      1.0000 0.80387  0.39328  0.35589  Biso   1.000  O
  O55      1.0000 0.89328  0.69614  0.14411  Biso   1.000  O
  O56      1.0000 0.10672  0.30387  0.14411  Biso   1.000  O
  O57      1.0000 0.08630  0.58630  0.25000  Biso   1.000  O
  O58      1.0000 0.91370  0.41370  0.25000  Biso   1.000  O
  O59      1.0000 0.08630  0.41370  0.25000  Biso   1.000  O
  O60      1.0000 0.91370  0.58630  0.25000  Biso   1.000  O
  O61      1.0000 0.19730  0.69730  0.75000  Biso   1.000  O
  O62      1.0000 0.80270  0.30270  0.75000  Biso   1.000  O
  O63      1.0000 0.19730  0.30270  0.75000  Biso   1.000  O
  O64      1.0000 0.80270  0.69730  0.75000  Biso   1.000  O
  O65      1.0000 0.91953  0.24843  0.41890  Biso   1.000  O
  O66      1.0000 0.08047  0.75157  0.41890  Biso   1.000  O
  O67      1.0000 0.74843  0.58047  0.08110  Biso   1.000  O
  O68      1.0000 0.25157  0.41953  0.08110  Biso   1.000  O
  O69      1.0000 0.91953  0.75157  0.41890  Biso   1.000  O
  O70      1.0000 0.08047  0.24843  0.41890  Biso   1.000  O
  O71      1.0000 0.74843  0.41953  0.08110  Biso   1.000  O
  O72      1.0000 0.25157  0.58047  0.08110  Biso   1.000  O
  O73      1.0000 0.10627  0.18565  0.05193  Biso   1.000  O
  O74      1.0000 0.89373  0.81436  0.05193  Biso   1.000  O
  O75      1.0000 0.68565  0.39373  0.44807  Biso   1.000  O
  O76      1.0000 0.31436  0.60627  0.44807  Biso   1.000  O
  O77      1.0000 0.10627  0.81436  0.05193  Biso   1.000  O
  O78      1.0000 0.89373  0.18565  0.05193  Biso   1.000  O
  O79      1.0000 0.68565  0.60627  0.44807  Biso   1.000  O
  O80      1.0000 0.31436  0.39373  0.44807  Biso   1.000  O
  O81      1.0000 0.19515  0.50000  0.95146  Biso   1.000  O
  O82      1.0000 0.80485  0.50000  0.95146  Biso   1.000  O
  O83      1.0000 0.00000  0.30485  0.54854  Biso   1.000  O
  O84      1.0000 0.00000  0.69515  0.54854  Biso   1.000  O
  O85      1.0000 0.30901  0.39376  0.25470  Biso   1.000  O
  O86      1.0000 0.69099  0.60624  0.25470  Biso   1.000  O
  O87      1.0000 0.89376  0.19099  0.24530  Biso   1.000  O
  O88      1.0000 0.10624  0.80901  0.24530  Biso   1.000  O
  O89      1.0000 0.30901  0.60624  0.25470  Biso   1.000  O
  O90      1.0000 0.69099  0.39376  0.25470  Biso   1.000  O
  O91      1.0000 0.89376  0.80901  0.24530  Biso   1.000  O
  O92      1.0000 0.10624  0.19099  0.24530  Biso   1.000  O
  O93      1.0000 0.27119  0.50000  0.35507  Biso   1.000  O
  O94      1.0000 0.72881  0.50000  0.35507  Biso   1.000  O
  O95      1.0000 0.00000  0.22881  0.14493  Biso   1.000  O
  O96      1.0000 0.00000  0.77119  0.14493  Biso   1.000  O
  O97      1.0000 0.23699  0.81581  0.08281  Biso   1.000  O
  O98      1.0000 0.76301  0.18419  0.08281  Biso   1.000  O
  O99      1.0000 0.31581  0.26301  0.41719  Biso   1.000  O
  O100     1.0000 0.68419  0.73699  0.41719  Biso   1.000  O
  O101     1.0000 0.23699  0.18419  0.08281  Biso   1.000  O
  O102     1.0000 0.76301  0.81581  0.08281  Biso   1.000  O
  O103     1.0000 0.31581  0.73699  0.41719  Biso   1.000  O
  O104     1.0000 0.68419  0.26301  0.41719  Biso   1.000  O
  O105     1.0000 0.90775  0.00000  0.48339  Biso   1.000  O
  O106     1.0000 0.09225  0.00000  0.48339  Biso   1.000  O
  O107     1.0000 0.50000  0.59225  0.01661  Biso   1.000  O
  O108     1.0000 0.50000  0.40775  0.01661  Biso   1.000  O
  O109     1.0000 0.57929  0.12007  0.94067  Biso   1.000  O
  O110     1.0000 0.42071  0.87993  0.94067  Biso   1.000  O
  O111     1.0000 0.62007  0.92071  0.55933  Biso   1.000  O
  O112     1.0000 0.37993  0.07929  0.55933  Biso   1.000  O
  O113     1.0000 0.57929  0.87993  0.94067  Biso   1.000  O
  O114     1.0000 0.42071  0.12007  0.94067  Biso   1.000  O
  O115     1.0000 0.62007  0.07929  0.55933  Biso   1.000  O
  O116     1.0000 0.37993  0.92071  0.55933  Biso   1.000  O
  O117     1.0000 0.88190  0.89445  0.59637  Biso   1.000  O
  O118     1.0000 0.11810  0.10555  0.59637  Biso   1.000  O
  O119     1.0000 0.39445  0.61810  0.90363  Biso   1.000  O
  O120     1.0000 0.60555  0.38190  0.90363  Biso   1.000  O
  O121     1.0000 0.88190  0.10555  0.59637  Biso   1.000  O
  O122     1.0000 0.11810  0.89445  0.59637  Biso   1.000  O
  O123     1.0000 0.39445  0.38190  0.90363  Biso   1.000  O
  O124     1.0000 0.60555  0.61810  0.90363  Biso   1.000  O
  O125     1.0000 0.69599  0.13004  0.41677  Biso   1.000  O
  O126     1.0000 0.30401  0.86996  0.41677  Biso   1.000  O
  O127     1.0000 0.63004  0.80401  0.08323  Biso   1.000  O
  O128     1.0000 0.36996  0.19599  0.08323  Biso   1.000  O
  O129     1.0000 0.69599  0.86996  0.41677  Biso   1.000  O
  O130     1.0000 0.30401  0.13004  0.41677  Biso   1.000  O
  O131     1.0000 0.63004  0.19599  0.08323  Biso   1.000  O
  O132     1.0000 0.36996  0.80401  0.08323  Biso   1.000  O
  O133     1.0000 0.70122  0.29169  0.87759  Biso   1.000  O
  O134     1.0000 0.29878  0.70831  0.87759  Biso   1.000  O
  O135     1.0000 0.79169  0.79878  0.62241  Biso   1.000  O
  O136     1.0000 0.20831  0.20122  0.62241  Biso   1.000  O
  O137     1.0000 0.70122  0.70831  0.87759  Biso   1.000  O
  O138     1.0000 0.29878  0.29169  0.87759  Biso   1.000  O
  O139     1.0000 0.79169  0.20122  0.62241  Biso   1.000  O
  O140     1.0000 0.20831  0.79878  0.62241  Biso   1.000  O
  O141     1.0000 0.38019  0.00000  0.88925  Biso   1.000  O
  O142     1.0000 0.61982  0.00000  0.88925  Biso   1.000  O
  O143     1.0000 0.50000  0.11982  0.61075  Biso   1.000  O
  O144     1.0000 0.50000  0.88019  0.61075  Biso   1.000  O
  O145     1.0000 0.69614  0.89328  0.85589  Biso   1.000  O
  O146     1.0000 0.30387  0.10672  0.85589  Biso   1.000  O
  O147     1.0000 0.39328  0.80387  0.64411  Biso   1.000  O
  O148     1.0000 0.60672  0.19613  0.64411  Biso   1.000  O
  O149     1.0000 0.69614  0.10672  0.85589  Biso   1.000  O
  O150     1.0000 0.30387  0.89328  0.85589  Biso   1.000  O
  O151     1.0000 0.39328  0.19613  0.64411  Biso   1.000  O
  O152     1.0000 0.60672  0.80387  0.64411  Biso   1.000  O
  O153     1.0000 0.58630  0.08630  0.75000  Biso   1.000  O
  O154     1.0000 0.41370  0.91370  0.75000  Biso   1.000  O
  O155     1.0000 0.58630  0.91370  0.75000  Biso   1.000  O
  O156     1.0000 0.41370  0.08630  0.75000  Biso   1.000  O
  O157     1.0000 0.69730  0.19730  0.25000  Biso   1.000  O
  O158     1.0000 0.30270  0.80270  0.25000  Biso   1.000  O
  O159     1.0000 0.69730  0.80270  0.25000  Biso   1.000  O
  O160     1.0000 0.30270  0.19730  0.25000  Biso   1.000  O
  O161     1.0000 0.41953  0.74843  0.91890  Biso   1.000  O
  O162     1.0000 0.58047  0.25157  0.91890  Biso   1.000  O
  O163     1.0000 0.24843  0.08047  0.58110  Biso   1.000  O
  O164     1.0000 0.75157  0.91953  0.58110  Biso   1.000  O
  O165     1.0000 0.41953  0.25157  0.91890  Biso   1.000  O
  O166     1.0000 0.58047  0.74843  0.91890  Biso   1.000  O
  O167     1.0000 0.24843  0.91953  0.58110  Biso   1.000  O
  O168     1.0000 0.75157  0.08047  0.58110  Biso   1.000  O
  O169     1.0000 0.60627  0.68565  0.55193  Biso   1.000  O
  O170     1.0000 0.39373  0.31436  0.55193  Biso   1.000  O
  O171     1.0000 0.18565  0.89373  0.94807  Biso   1.000  O
  O172     1.0000 0.81436  0.10627  0.94807  Biso   1.000  O
  O173     1.0000 0.60627  0.31436  0.55193  Biso   1.000  O
  O174     1.0000 0.39373  0.68565  0.55193  Biso   1.000  O
  O175     1.0000 0.18565  0.10627  0.94807  Biso   1.000  O
  O176     1.0000 0.81436  0.89373  0.94807  Biso   1.000  O
  O177     1.0000 0.69515  0.00000  0.45146  Biso   1.000  O
  O178     1.0000 0.30485  0.00000  0.45146  Biso   1.000  O
  O179     1.0000 0.50000  0.80485  0.04854  Biso   1.000  O
  O180     1.0000 0.50000  0.19515  0.04854  Biso   1.000  O
  O181     1.0000 0.80901  0.89376  0.75470  Biso   1.000  O
  O182     1.0000 0.19099  0.10624  0.75470  Biso   1.000  O
  O183     1.0000 0.39376  0.69099  0.74530  Biso   1.000  O
  O184     1.0000 0.60624  0.30901  0.74530  Biso   1.000  O
  O185     1.0000 0.80901  0.10624  0.75470  Biso   1.000  O
  O186     1.0000 0.19099  0.89376  0.75470  Biso   1.000  O
  O187     1.0000 0.39376  0.30901  0.74530  Biso   1.000  O
  O188     1.0000 0.60624  0.69099  0.74530  Biso   1.000  O
  O189     1.0000 0.77119  0.00000  0.85507  Biso   1.000  O
  O190     1.0000 0.22881  0.00000  0.85507  Biso   1.000  O
  O191     1.0000 0.50000  0.72881  0.64493  Biso   1.000  O
  O192     1.0000 0.50000  0.27119  0.64493  Biso   1.000  O
  Ir1      1.0000 0.42127  0.42127  0.00000  Biso   1.000  Ir
  Ir2      1.0000 0.07873  0.07873  0.50000  Biso   1.000  Ir
  Ir3      1.0000 0.92127  0.07873  0.50000  Biso   1.000  Ir
  Ir4      1.0000 0.57873  0.42127  0.00000  Biso   1.000  Ir
  Ir5      1.0000 0.80071  0.71895  0.63513  Biso   1.000  Ir
  Ir6      1.0000 0.19929  0.28105  0.63513  Biso   1.000  Ir
  Ir7      1.0000 0.21895  0.69929  0.86487  Biso   1.000  Ir
  Ir8      1.0000 0.78105  0.30071  0.86487  Biso   1.000  Ir
  Ir9      1.0000 0.80071  0.28105  0.63513  Biso   1.000  Ir
  Ir10     1.0000 0.19929  0.71895  0.63513  Biso   1.000  Ir
  Ir11     1.0000 0.21895  0.30071  0.86487  Biso   1.000  Ir
  Ir12     1.0000 0.78105  0.69929  0.86487  Biso   1.000  Ir
  Ir13     1.0000 0.07816  0.61997  0.14169  Biso   1.000  Ir
  Ir14     1.0000 0.92184  0.38003  0.14169  Biso   1.000  Ir
  Ir15     1.0000 0.11997  0.42184  0.35830  Biso   1.000  Ir
  Ir16     1.0000 0.88003  0.57816  0.35830  Biso   1.000  Ir
  Ir17     1.0000 0.07816  0.38003  0.14169  Biso   1.000  Ir
  Ir18     1.0000 0.92184  0.61997  0.14169  Biso   1.000  Ir
  Ir19     1.0000 0.11997  0.57816  0.35830  Biso   1.000  Ir
  Ir20     1.0000 0.88003  0.42184  0.35830  Biso   1.000  Ir
  Ir21     1.0000 0.72726  0.57982  0.35347  Biso   1.000  Ir
  Ir22     1.0000 0.27275  0.42018  0.35347  Biso   1.000  Ir
  Ir23     1.0000 0.07982  0.77275  0.14653  Biso   1.000  Ir
  Ir24     1.0000 0.92018  0.22725  0.14653  Biso   1.000  Ir
  Ir25     1.0000 0.72726  0.42018  0.35347  Biso   1.000  Ir
  Ir26     1.0000 0.27275  0.57982  0.35347  Biso   1.000  Ir
  Ir27     1.0000 0.07982  0.22725  0.14653  Biso   1.000  Ir
  Ir28     1.0000 0.92018  0.77275  0.14653  Biso   1.000  Ir
  Ir29     1.0000 0.19102  0.57382  0.00161  Biso   1.000  Ir
  Ir30     1.0000 0.80898  0.42618  0.00161  Biso   1.000  Ir
  Ir31     1.0000 0.07382  0.30898  0.49839  Biso   1.000  Ir
  Ir32     1.0000 0.92618  0.69102  0.49839  Biso   1.000  Ir
  Ir33     1.0000 0.19102  0.42618  0.00161  Biso   1.000  Ir
  Ir34     1.0000 0.80898  0.57382  0.00161  Biso   1.000  Ir
  Ir35     1.0000 0.07382  0.69102  0.49839  Biso   1.000  Ir
  Ir36     1.0000 0.92618  0.30898  0.49839  Biso   1.000  Ir
  Ir37     1.0000 0.17896  0.17896  0.00000  Biso   1.000  Ir
  Ir38     1.0000 0.32104  0.32104  0.50000  Biso   1.000  Ir
  Ir39     1.0000 0.67896  0.32104  0.50000  Biso   1.000  Ir
  Ir40     1.0000 0.82104  0.17896  0.00000  Biso   1.000  Ir
  Ir41     1.0000 0.87673  0.80817  0.36145  Biso   1.000  Ir
  Ir42     1.0000 0.12327  0.19183  0.36145  Biso   1.000  Ir
  Ir43     1.0000 0.30817  0.62327  0.13855  Biso   1.000  Ir
  Ir44     1.0000 0.69183  0.37673  0.13855  Biso   1.000  Ir
  Ir45     1.0000 0.87673  0.19183  0.36145  Biso   1.000  Ir
  Ir46     1.0000 0.12327  0.80817  0.36145  Biso   1.000  Ir
  Ir47     1.0000 0.30817  0.37673  0.13855  Biso   1.000  Ir
  Ir48     1.0000 0.69183  0.62327  0.13855  Biso   1.000  Ir
  Ir49     1.0000 0.92127  0.92127  0.50000  Biso   1.000  Ir
  Ir50     1.0000 0.57873  0.57873  0.00000  Biso   1.000  Ir
  Ir51     1.0000 0.42127  0.57873  0.00000  Biso   1.000  Ir
  Ir52     1.0000 0.07873  0.92127  0.50000  Biso   1.000  Ir
  Ir53     1.0000 0.30071  0.21895  0.13513  Biso   1.000  Ir
  Ir54     1.0000 0.69929  0.78105  0.13513  Biso   1.000  Ir
  Ir55     1.0000 0.71895  0.19929  0.36487  Biso   1.000  Ir
  Ir56     1.0000 0.28105  0.80071  0.36487  Biso   1.000  Ir
  Ir57     1.0000 0.30071  0.78105  0.13513  Biso   1.000  Ir
  Ir58     1.0000 0.69929  0.21895  0.13513  Biso   1.000  Ir
  Ir59     1.0000 0.71895  0.80071  0.36487  Biso   1.000  Ir
  Ir60     1.0000 0.28105  0.19929  0.36487  Biso   1.000  Ir
  Ir61     1.0000 0.57816  0.11997  0.64169  Biso   1.000  Ir
  Ir62     1.0000 0.42184  0.88003  0.64169  Biso   1.000  Ir
  Ir63     1.0000 0.61997  0.92184  0.85830  Biso   1.000  Ir
  Ir64     1.0000 0.38003  0.07816  0.85830  Biso   1.000  Ir
  Ir65     1.0000 0.57816  0.88003  0.64169  Biso   1.000  Ir
  Ir66     1.0000 0.42184  0.11997  0.64169  Biso   1.000  Ir
  Ir67     1.0000 0.61997  0.07816  0.85830  Biso   1.000  Ir
  Ir68     1.0000 0.38003  0.92184  0.85830  Biso   1.000  Ir
  Ir69     1.0000 0.22725  0.07982  0.85347  Biso   1.000  Ir
  Ir70     1.0000 0.77275  0.92018  0.85347  Biso   1.000  Ir
  Ir71     1.0000 0.57982  0.27275  0.64653  Biso   1.000  Ir
  Ir72     1.0000 0.42018  0.72726  0.64653  Biso   1.000  Ir
  Ir73     1.0000 0.22725  0.92018  0.85347  Biso   1.000  Ir
  Ir74     1.0000 0.77275  0.07982  0.85347  Biso   1.000  Ir
  Ir75     1.0000 0.57982  0.72726  0.64653  Biso   1.000  Ir
  Ir76     1.0000 0.42018  0.27275  0.64653  Biso   1.000  Ir
  Ir77     1.0000 0.69102  0.07382  0.50161  Biso   1.000  Ir
  Ir78     1.0000 0.30898  0.92618  0.50161  Biso   1.000  Ir
  Ir79     1.0000 0.57382  0.80898  0.99839  Biso   1.000  Ir
  Ir80     1.0000 0.42618  0.19102  0.99839  Biso   1.000  Ir
  Ir81     1.0000 0.69102  0.92618  0.50161  Biso   1.000  Ir
  Ir82     1.0000 0.30898  0.07382  0.50161  Biso   1.000  Ir
  Ir83     1.0000 0.57382  0.19102  0.99839  Biso   1.000  Ir
  Ir84     1.0000 0.42618  0.80898  0.99839  Biso   1.000  Ir
  Ir85     1.0000 0.67896  0.67896  0.50000  Biso   1.000  Ir
  Ir86     1.0000 0.82104  0.82104  0.00000  Biso   1.000  Ir
  Ir87     1.0000 0.17896  0.82104  0.00000  Biso   1.000  Ir
  Ir88     1.0000 0.32104  0.67896  0.50000  Biso   1.000  Ir
  Ir89     1.0000 0.37673  0.30817  0.86145  Biso   1.000  Ir
  Ir90     1.0000 0.62327  0.69183  0.86145  Biso   1.000  Ir
  Ir91     1.0000 0.80817  0.12327  0.63855  Biso   1.000  Ir
  Ir92     1.0000 0.19183  0.87673  0.63855  Biso   1.000  Ir
  Ir93     1.0000 0.37673  0.69183  0.86145  Biso   1.000  Ir
  Ir94     1.0000 0.62327  0.30817  0.86145  Biso   1.000  Ir
  Ir95     1.0000 0.80817  0.87673  0.63855  Biso   1.000  Ir
  Ir96     1.0000 0.19183  0.12327  0.63855  Biso   1.000  Ir
