data_image0
_cell_length_a       10.9731
_cell_length_b       10.9731
_cell_length_c       9.20672
_cell_angle_alpha    90
_cell_angle_beta     90
_cell_angle_gamma    90

_symmetry_space_group_name_H-M    "P 1"
_symmetry_int_tables_number       1

loop_
  _symmetry_equiv_pos_as_xyz
  'x, y, z'

loop_
  _atom_site_label
  _atom_site_occupancy
  _atom_site_fract_x
  _atom_site_fract_y
  _atom_site_fract_z
  _atom_site_thermal_displace_type
  _atom_site_B_iso_or_equiv
  _atom_site_type_symbol
  O1       1.0000 0.24147  0.00000  0.00000  Biso   1.000  O
  O2       1.0000 0.75853  0.00000  0.00000  Biso   1.000  O
  O3       1.0000 0.00000  0.75853  0.00000  Biso   1.000  O
  O4       1.0000 0.00000  0.24147  0.00000  Biso   1.000  O
  O5       1.0000 0.91886  0.67250  0.32101  Biso   1.000  O
  O6       1.0000 0.08114  0.32750  0.32101  Biso   1.000  O
  O7       1.0000 0.17250  0.58114  0.17899  Biso   1.000  O
  O8       1.0000 0.82750  0.41886  0.17899  Biso   1.000  O
  O9       1.0000 0.58114  0.17250  0.17899  Biso   1.000  O
  O10      1.0000 0.41886  0.82750  0.17899  Biso   1.000  O
  O11      1.0000 0.32750  0.08114  0.32101  Biso   1.000  O
  O12      1.0000 0.67250  0.91886  0.32101  Biso   1.000  O
  O13      1.0000 0.13884  0.13884  0.72138  Biso   1.000  O
  O14      1.0000 0.36116  0.36116  0.22138  Biso   1.000  O
  O15      1.0000 0.13884  0.86116  0.27862  Biso   1.000  O
  O16      1.0000 0.86116  0.13884  0.27862  Biso   1.000  O
  O17      1.0000 0.74147  0.50000  0.50000  Biso   1.000  O
  O18      1.0000 0.25853  0.50000  0.50000  Biso   1.000  O
  O19      1.0000 0.50000  0.25853  0.50000  Biso   1.000  O
  O20      1.0000 0.50000  0.74147  0.50000  Biso   1.000  O
  O21      1.0000 0.41886  0.17250  0.82101  Biso   1.000  O
  O22      1.0000 0.58114  0.82750  0.82101  Biso   1.000  O
  O23      1.0000 0.67250  0.08114  0.67899  Biso   1.000  O
  O24      1.0000 0.32750  0.91886  0.67899  Biso   1.000  O
  O25      1.0000 0.08114  0.67250  0.67899  Biso   1.000  O
  O26      1.0000 0.91886  0.32750  0.67899  Biso   1.000  O
  O27      1.0000 0.82750  0.58114  0.82101  Biso   1.000  O
  O28      1.0000 0.17250  0.41886  0.82101  Biso   1.000  O
  O29      1.0000 0.63884  0.63884  0.22138  Biso   1.000  O
  O30      1.0000 0.86116  0.86116  0.72138  Biso   1.000  O
  O31      1.0000 0.63884  0.36116  0.77862  Biso   1.000  O
  O32      1.0000 0.36116  0.63884  0.77862  Biso   1.000  O
  Ir1      1.0000 0.05615  0.71802  0.19579  Biso   1.000  Ir
  Ir2      1.0000 0.94385  0.28198  0.19579  Biso   1.000  Ir
  Ir3      1.0000 0.21802  0.44385  0.30421  Biso   1.000  Ir
  Ir4      1.0000 0.78198  0.55615  0.30421  Biso   1.000  Ir
  Ir5      1.0000 0.44385  0.21802  0.30421  Biso   1.000  Ir
  Ir6      1.0000 0.55615  0.78198  0.30421  Biso   1.000  Ir
  Ir7      1.0000 0.28198  0.94385  0.19579  Biso   1.000  Ir
  Ir8      1.0000 0.71802  0.05615  0.19579  Biso   1.000  Ir
  Ir9      1.0000 0.55615  0.21802  0.69579  Biso   1.000  Ir
  Ir10     1.0000 0.44385  0.78198  0.69579  Biso   1.000  Ir
  Ir11     1.0000 0.71802  0.94385  0.80421  Biso   1.000  Ir
  Ir12     1.0000 0.28198  0.05615  0.80421  Biso   1.000  Ir
  Ir13     1.0000 0.94385  0.71802  0.80421  Biso   1.000  Ir
  Ir14     1.0000 0.05615  0.28198  0.80421  Biso   1.000  Ir
  Ir15     1.0000 0.78198  0.44385  0.69579  Biso   1.000  Ir
  Ir16     1.0000 0.21802  0.55615  0.69579  Biso   1.000  Ir
