data_image0
_cell_length_a       18.3138
_cell_length_b       18.3138
_cell_length_c       18.3138
_cell_angle_alpha    90
_cell_angle_beta     90
_cell_angle_gamma    90

_symmetry_space_group_name_H-M    "P 1"
_symmetry_int_tables_number       1

loop_
  _symmetry_equiv_pos_as_xyz
  'x, y, z'

loop_
  _atom_site_label
  _atom_site_occupancy
  _atom_site_fract_x
  _atom_site_fract_y
  _atom_site_fract_z
  _atom_site_thermal_displace_type
  _atom_site_B_iso_or_equiv
  _atom_site_type_symbol
  O1       1.0000 0.17935  0.32160  0.16713  Biso   1.000  O
  O2       1.0000 0.32065  0.67840  0.66713  Biso   1.000  O
  O3       1.0000 0.17935  0.67840  0.33287  Biso   1.000  O
  O4       1.0000 0.32065  0.32160  0.83287  Biso   1.000  O
  O5       1.0000 0.17840  0.83287  0.67935  Biso   1.000  O
  O6       1.0000 0.32160  0.83287  0.32065  Biso   1.000  O
  O7       1.0000 0.32160  0.16713  0.17935  Biso   1.000  O
  O8       1.0000 0.17840  0.16713  0.82065  Biso   1.000  O
  O9       1.0000 0.16713  0.82065  0.17840  Biso   1.000  O
  O10      1.0000 0.66713  0.67935  0.82160  Biso   1.000  O
  O11      1.0000 0.33287  0.82065  0.82160  Biso   1.000  O
  O12      1.0000 0.83287  0.67935  0.17840  Biso   1.000  O
  O13      1.0000 0.42840  0.57065  0.58287  Biso   1.000  O
  O14      1.0000 0.07160  0.42935  0.08287  Biso   1.000  O
  O15      1.0000 0.07160  0.57065  0.41713  Biso   1.000  O
  O16      1.0000 0.42840  0.42935  0.91713  Biso   1.000  O
  O17      1.0000 0.41713  0.07160  0.57065  Biso   1.000  O
  O18      1.0000 0.41713  0.92840  0.92935  Biso   1.000  O
  O19      1.0000 0.08287  0.92840  0.07065  Biso   1.000  O
  O20      1.0000 0.08287  0.07160  0.42935  Biso   1.000  O
  O21      1.0000 0.92935  0.58287  0.57160  Biso   1.000  O
  O22      1.0000 0.57065  0.58287  0.42840  Biso   1.000  O
  O23      1.0000 0.42935  0.91713  0.42840  Biso   1.000  O
  O24      1.0000 0.07065  0.91713  0.57160  Biso   1.000  O
  O25      1.0000 0.32065  0.17840  0.33287  Biso   1.000  O
  O26      1.0000 0.17935  0.82160  0.83287  Biso   1.000  O
  O27      1.0000 0.32065  0.82160  0.16713  Biso   1.000  O
  O28      1.0000 0.17935  0.17840  0.66713  Biso   1.000  O
  O29      1.0000 0.32160  0.66713  0.82065  Biso   1.000  O
  O30      1.0000 0.17840  0.66713  0.17935  Biso   1.000  O
  O31      1.0000 0.17840  0.33287  0.32065  Biso   1.000  O
  O32      1.0000 0.32160  0.33287  0.67935  Biso   1.000  O
  O33      1.0000 0.33287  0.67935  0.32160  Biso   1.000  O
  O34      1.0000 0.83287  0.82065  0.67840  Biso   1.000  O
  O35      1.0000 0.16713  0.67935  0.67840  Biso   1.000  O
  O36      1.0000 0.66713  0.82065  0.32160  Biso   1.000  O
  O37      1.0000 0.07160  0.92935  0.91713  Biso   1.000  O
  O38      1.0000 0.42840  0.07065  0.41713  Biso   1.000  O
  O39      1.0000 0.42840  0.92935  0.08287  Biso   1.000  O
  O40      1.0000 0.07160  0.07065  0.58287  Biso   1.000  O
  O41      1.0000 0.08287  0.42840  0.92935  Biso   1.000  O
  O42      1.0000 0.08287  0.57160  0.57065  Biso   1.000  O
  O43      1.0000 0.41713  0.57160  0.42935  Biso   1.000  O
  O44      1.0000 0.41713  0.42840  0.07065  Biso   1.000  O
  O45      1.0000 0.57065  0.91713  0.92840  Biso   1.000  O
  O46      1.0000 0.92935  0.91713  0.07160  Biso   1.000  O
  O47      1.0000 0.07065  0.58287  0.07160  Biso   1.000  O
  O48      1.0000 0.42935  0.58287  0.92840  Biso   1.000  O
  O49      1.0000 0.27950  0.92999  0.06344  Biso   1.000  O
  O50      1.0000 0.22050  0.07001  0.56344  Biso   1.000  O
  O51      1.0000 0.27950  0.07001  0.43656  Biso   1.000  O
  O52      1.0000 0.22050  0.92999  0.93656  Biso   1.000  O
  O53      1.0000 0.07001  0.43656  0.27950  Biso   1.000  O
  O54      1.0000 0.42999  0.43656  0.72050  Biso   1.000  O
  O55      1.0000 0.42999  0.56344  0.77950  Biso   1.000  O
  O56      1.0000 0.07001  0.56344  0.22050  Biso   1.000  O
  O57      1.0000 0.06344  0.72050  0.57001  Biso   1.000  O
  O58      1.0000 0.56344  0.77950  0.42999  Biso   1.000  O
  O59      1.0000 0.43656  0.72050  0.42999  Biso   1.000  O
  O60      1.0000 0.93656  0.77950  0.57001  Biso   1.000  O
  O61      1.0000 0.32001  0.97050  0.18656  Biso   1.000  O
  O62      1.0000 0.17999  0.02950  0.68656  Biso   1.000  O
  O63      1.0000 0.17999  0.97050  0.81343  Biso   1.000  O
  O64      1.0000 0.32001  0.02950  0.31343  Biso   1.000  O
  O65      1.0000 0.31343  0.67999  0.47050  Biso   1.000  O
  O66      1.0000 0.31343  0.32001  0.02950  Biso   1.000  O
  O67      1.0000 0.18656  0.32001  0.97050  Biso   1.000  O
  O68      1.0000 0.18656  0.67999  0.52950  Biso   1.000  O
  O69      1.0000 0.02950  0.68656  0.17999  Biso   1.000  O
  O70      1.0000 0.47050  0.68656  0.82001  Biso   1.000  O
  O71      1.0000 0.52950  0.81343  0.82001  Biso   1.000  O
  O72      1.0000 0.97050  0.81343  0.17999  Biso   1.000  O
  O73      1.0000 0.22050  0.57001  0.43656  Biso   1.000  O
  O74      1.0000 0.27950  0.42999  0.93656  Biso   1.000  O
  O75      1.0000 0.22050  0.42999  0.06344  Biso   1.000  O
  O76      1.0000 0.27950  0.57001  0.56344  Biso   1.000  O
  O77      1.0000 0.42999  0.06344  0.22050  Biso   1.000  O
  O78      1.0000 0.07001  0.06344  0.77950  Biso   1.000  O
  O79      1.0000 0.07001  0.93656  0.72050  Biso   1.000  O
  O80      1.0000 0.42999  0.93656  0.27950  Biso   1.000  O
  O81      1.0000 0.43656  0.77950  0.92999  Biso   1.000  O
  O82      1.0000 0.93656  0.72050  0.07001  Biso   1.000  O
  O83      1.0000 0.06344  0.77950  0.07001  Biso   1.000  O
  O84      1.0000 0.56344  0.72050  0.92999  Biso   1.000  O
  O85      1.0000 0.17999  0.52950  0.31343  Biso   1.000  O
  O86      1.0000 0.32001  0.47050  0.81343  Biso   1.000  O
  O87      1.0000 0.32001  0.52950  0.68656  Biso   1.000  O
  O88      1.0000 0.17999  0.47050  0.18656  Biso   1.000  O
  O89      1.0000 0.18656  0.82001  0.02950  Biso   1.000  O
  O90      1.0000 0.18656  0.17999  0.47050  Biso   1.000  O
  O91      1.0000 0.31343  0.17999  0.52950  Biso   1.000  O
  O92      1.0000 0.31343  0.82001  0.97050  Biso   1.000  O
  O93      1.0000 0.47050  0.81343  0.32001  Biso   1.000  O
  O94      1.0000 0.02950  0.81343  0.67999  Biso   1.000  O
  O95      1.0000 0.97050  0.68656  0.67999  Biso   1.000  O
  O96      1.0000 0.52950  0.68656  0.32001  Biso   1.000  O
  O97      1.0000 0.67935  0.82160  0.66713  Biso   1.000  O
  O98      1.0000 0.82065  0.17840  0.16713  Biso   1.000  O
  O99      1.0000 0.67935  0.17840  0.83287  Biso   1.000  O
  O100     1.0000 0.82065  0.82160  0.33287  Biso   1.000  O
  O101     1.0000 0.67840  0.33287  0.17935  Biso   1.000  O
  O102     1.0000 0.82160  0.33287  0.82065  Biso   1.000  O
  O103     1.0000 0.82160  0.66713  0.67935  Biso   1.000  O
  O104     1.0000 0.67840  0.66713  0.32065  Biso   1.000  O
  O105     1.0000 0.66713  0.32065  0.67840  Biso   1.000  O
  O106     1.0000 0.16713  0.17935  0.32160  Biso   1.000  O
  O107     1.0000 0.83287  0.32065  0.32160  Biso   1.000  O
  O108     1.0000 0.33287  0.17935  0.67840  Biso   1.000  O
  O109     1.0000 0.92840  0.07065  0.08287  Biso   1.000  O
  O110     1.0000 0.57160  0.92935  0.58287  Biso   1.000  O
  O111     1.0000 0.57160  0.07065  0.91713  Biso   1.000  O
  O112     1.0000 0.92840  0.92935  0.41713  Biso   1.000  O
  O113     1.0000 0.91713  0.57160  0.07065  Biso   1.000  O
  O114     1.0000 0.91713  0.42840  0.42935  Biso   1.000  O
  O115     1.0000 0.58287  0.42840  0.57065  Biso   1.000  O
  O116     1.0000 0.58287  0.57160  0.92935  Biso   1.000  O
  O117     1.0000 0.42935  0.08287  0.07160  Biso   1.000  O
  O118     1.0000 0.07065  0.08287  0.92840  Biso   1.000  O
  O119     1.0000 0.92935  0.41713  0.92840  Biso   1.000  O
  O120     1.0000 0.57065  0.41713  0.07160  Biso   1.000  O
  O121     1.0000 0.82065  0.67840  0.83287  Biso   1.000  O
  O122     1.0000 0.67935  0.32160  0.33287  Biso   1.000  O
  O123     1.0000 0.82065  0.32160  0.66713  Biso   1.000  O
  O124     1.0000 0.67935  0.67840  0.16713  Biso   1.000  O
  O125     1.0000 0.82160  0.16713  0.32065  Biso   1.000  O
  O126     1.0000 0.67840  0.16713  0.67935  Biso   1.000  O
  O127     1.0000 0.67840  0.83287  0.82065  Biso   1.000  O
  O128     1.0000 0.82160  0.83287  0.17935  Biso   1.000  O
  O129     1.0000 0.83287  0.17935  0.82160  Biso   1.000  O
  O130     1.0000 0.33287  0.32065  0.17840  Biso   1.000  O
  O131     1.0000 0.66713  0.17935  0.17840  Biso   1.000  O
  O132     1.0000 0.16713  0.32065  0.82160  Biso   1.000  O
  O133     1.0000 0.57160  0.42935  0.41713  Biso   1.000  O
  O134     1.0000 0.92840  0.57065  0.91713  Biso   1.000  O
  O135     1.0000 0.92840  0.42935  0.58287  Biso   1.000  O
  O136     1.0000 0.57160  0.57065  0.08287  Biso   1.000  O
  O137     1.0000 0.58287  0.92840  0.42935  Biso   1.000  O
  O138     1.0000 0.58287  0.07160  0.07065  Biso   1.000  O
  O139     1.0000 0.91713  0.07160  0.92935  Biso   1.000  O
  O140     1.0000 0.91713  0.92840  0.57065  Biso   1.000  O
  O141     1.0000 0.07065  0.41713  0.42840  Biso   1.000  O
  O142     1.0000 0.42935  0.41713  0.57160  Biso   1.000  O
  O143     1.0000 0.57065  0.08287  0.57160  Biso   1.000  O
  O144     1.0000 0.92935  0.08287  0.42840  Biso   1.000  O
  O145     1.0000 0.77950  0.42999  0.56344  Biso   1.000  O
  O146     1.0000 0.72050  0.57001  0.06344  Biso   1.000  O
  O147     1.0000 0.77950  0.57001  0.93656  Biso   1.000  O
  O148     1.0000 0.72050  0.42999  0.43656  Biso   1.000  O
  O149     1.0000 0.57001  0.93656  0.77950  Biso   1.000  O
  O150     1.0000 0.92999  0.93656  0.22050  Biso   1.000  O
  O151     1.0000 0.92999  0.06344  0.27950  Biso   1.000  O
  O152     1.0000 0.57001  0.06344  0.72050  Biso   1.000  O
  O153     1.0000 0.56344  0.22050  0.07001  Biso   1.000  O
  O154     1.0000 0.06344  0.27950  0.92999  Biso   1.000  O
  O155     1.0000 0.93656  0.22050  0.92999  Biso   1.000  O
  O156     1.0000 0.43656  0.27950  0.07001  Biso   1.000  O
  O157     1.0000 0.82001  0.47050  0.68656  Biso   1.000  O
  O158     1.0000 0.67999  0.52950  0.18656  Biso   1.000  O
  O159     1.0000 0.67999  0.47050  0.31343  Biso   1.000  O
  O160     1.0000 0.82001  0.52950  0.81343  Biso   1.000  O
  O161     1.0000 0.81343  0.17999  0.97050  Biso   1.000  O
  O162     1.0000 0.81343  0.82001  0.52950  Biso   1.000  O
  O163     1.0000 0.68656  0.82001  0.47050  Biso   1.000  O
  O164     1.0000 0.68656  0.17999  0.02950  Biso   1.000  O
  O165     1.0000 0.52950  0.18656  0.67999  Biso   1.000  O
  O166     1.0000 0.97050  0.18656  0.32001  Biso   1.000  O
  O167     1.0000 0.02950  0.31343  0.32001  Biso   1.000  O
  O168     1.0000 0.47050  0.31343  0.67999  Biso   1.000  O
  O169     1.0000 0.72050  0.07001  0.93656  Biso   1.000  O
  O170     1.0000 0.77950  0.92999  0.43656  Biso   1.000  O
  O171     1.0000 0.72050  0.92999  0.56344  Biso   1.000  O
  O172     1.0000 0.77950  0.07001  0.06344  Biso   1.000  O
  O173     1.0000 0.92999  0.56344  0.72050  Biso   1.000  O
  O174     1.0000 0.57001  0.56344  0.27950  Biso   1.000  O
  O175     1.0000 0.57001  0.43656  0.22050  Biso   1.000  O
  O176     1.0000 0.92999  0.43656  0.77950  Biso   1.000  O
  O177     1.0000 0.93656  0.27950  0.42999  Biso   1.000  O
  O178     1.0000 0.43656  0.22050  0.57001  Biso   1.000  O
  O179     1.0000 0.56344  0.27950  0.57001  Biso   1.000  O
  O180     1.0000 0.06344  0.22050  0.42999  Biso   1.000  O
  O181     1.0000 0.67999  0.02950  0.81343  Biso   1.000  O
  O182     1.0000 0.82001  0.97050  0.31343  Biso   1.000  O
  O183     1.0000 0.82001  0.02950  0.18656  Biso   1.000  O
  O184     1.0000 0.67999  0.97050  0.68656  Biso   1.000  O
  O185     1.0000 0.68656  0.32001  0.52950  Biso   1.000  O
  O186     1.0000 0.68656  0.67999  0.97050  Biso   1.000  O
  O187     1.0000 0.81343  0.67999  0.02950  Biso   1.000  O
  O188     1.0000 0.81343  0.32001  0.47050  Biso   1.000  O
  O189     1.0000 0.97050  0.31343  0.82001  Biso   1.000  O
  O190     1.0000 0.52950  0.31343  0.17999  Biso   1.000  O
  O191     1.0000 0.47050  0.18656  0.17999  Biso   1.000  O
  O192     1.0000 0.02950  0.18656  0.82001  Biso   1.000  O
  Ir1      1.0000 0.13883  0.40150  0.01030  Biso   1.000  Ir
  Ir2      1.0000 0.36117  0.59850  0.51030  Biso   1.000  Ir
  Ir3      1.0000 0.13883  0.59850  0.48970  Biso   1.000  Ir
  Ir4      1.0000 0.36117  0.40150  0.98970  Biso   1.000  Ir
  Ir5      1.0000 0.09850  0.98970  0.63883  Biso   1.000  Ir
  Ir6      1.0000 0.40150  0.98970  0.36117  Biso   1.000  Ir
  Ir7      1.0000 0.40150  0.01030  0.13883  Biso   1.000  Ir
  Ir8      1.0000 0.09850  0.01030  0.86117  Biso   1.000  Ir
  Ir9      1.0000 0.01030  0.86117  0.09850  Biso   1.000  Ir
  Ir10     1.0000 0.51030  0.63883  0.90150  Biso   1.000  Ir
  Ir11     1.0000 0.48970  0.86117  0.90150  Biso   1.000  Ir
  Ir12     1.0000 0.98970  0.63883  0.09850  Biso   1.000  Ir
  Ir13     1.0000 0.34850  0.61117  0.73970  Biso   1.000  Ir
  Ir14     1.0000 0.15150  0.38883  0.23970  Biso   1.000  Ir
  Ir15     1.0000 0.15150  0.61117  0.26030  Biso   1.000  Ir
  Ir16     1.0000 0.34850  0.38883  0.76030  Biso   1.000  Ir
  Ir17     1.0000 0.26030  0.15150  0.61117  Biso   1.000  Ir
  Ir18     1.0000 0.26030  0.84850  0.88883  Biso   1.000  Ir
  Ir19     1.0000 0.23970  0.84850  0.11117  Biso   1.000  Ir
  Ir20     1.0000 0.23970  0.15150  0.38883  Biso   1.000  Ir
  Ir21     1.0000 0.88883  0.73970  0.65150  Biso   1.000  Ir
  Ir22     1.0000 0.61117  0.73970  0.34850  Biso   1.000  Ir
  Ir23     1.0000 0.38883  0.76030  0.34850  Biso   1.000  Ir
  Ir24     1.0000 0.11117  0.76030  0.65150  Biso   1.000  Ir
  Ir25     1.0000 0.36117  0.09850  0.48970  Biso   1.000  Ir
  Ir26     1.0000 0.13883  0.90150  0.98970  Biso   1.000  Ir
  Ir27     1.0000 0.36117  0.90150  0.01030  Biso   1.000  Ir
  Ir28     1.0000 0.13883  0.09850  0.51030  Biso   1.000  Ir
  Ir29     1.0000 0.40150  0.51030  0.86117  Biso   1.000  Ir
  Ir30     1.0000 0.09850  0.51030  0.13883  Biso   1.000  Ir
  Ir31     1.0000 0.09850  0.48970  0.36117  Biso   1.000  Ir
  Ir32     1.0000 0.40150  0.48970  0.63883  Biso   1.000  Ir
  Ir33     1.0000 0.48970  0.63883  0.40150  Biso   1.000  Ir
  Ir34     1.0000 0.98970  0.86117  0.59850  Biso   1.000  Ir
  Ir35     1.0000 0.01030  0.63883  0.59850  Biso   1.000  Ir
  Ir36     1.0000 0.51030  0.86117  0.40150  Biso   1.000  Ir
  Ir37     1.0000 0.15150  0.88883  0.76030  Biso   1.000  Ir
  Ir38     1.0000 0.34850  0.11117  0.26030  Biso   1.000  Ir
  Ir39     1.0000 0.34850  0.88883  0.23970  Biso   1.000  Ir
  Ir40     1.0000 0.15150  0.11117  0.73970  Biso   1.000  Ir
  Ir41     1.0000 0.23970  0.34850  0.88883  Biso   1.000  Ir
  Ir42     1.0000 0.23970  0.65150  0.61117  Biso   1.000  Ir
  Ir43     1.0000 0.26030  0.65150  0.38883  Biso   1.000  Ir
  Ir44     1.0000 0.26030  0.34850  0.11117  Biso   1.000  Ir
  Ir45     1.0000 0.61117  0.76030  0.84850  Biso   1.000  Ir
  Ir46     1.0000 0.88883  0.76030  0.15150  Biso   1.000  Ir
  Ir47     1.0000 0.11117  0.73970  0.15150  Biso   1.000  Ir
  Ir48     1.0000 0.38883  0.73970  0.84850  Biso   1.000  Ir
  Ir49     1.0000 0.63883  0.90150  0.51030  Biso   1.000  Ir
  Ir50     1.0000 0.86117  0.09850  0.01030  Biso   1.000  Ir
  Ir51     1.0000 0.63883  0.09850  0.98970  Biso   1.000  Ir
  Ir52     1.0000 0.86117  0.90150  0.48970  Biso   1.000  Ir
  Ir53     1.0000 0.59850  0.48970  0.13883  Biso   1.000  Ir
  Ir54     1.0000 0.90150  0.48970  0.86117  Biso   1.000  Ir
  Ir55     1.0000 0.90150  0.51030  0.63883  Biso   1.000  Ir
  Ir56     1.0000 0.59850  0.51030  0.36117  Biso   1.000  Ir
  Ir57     1.0000 0.51030  0.36117  0.59850  Biso   1.000  Ir
  Ir58     1.0000 0.01030  0.13883  0.40150  Biso   1.000  Ir
  Ir59     1.0000 0.98970  0.36117  0.40150  Biso   1.000  Ir
  Ir60     1.0000 0.48970  0.13883  0.59850  Biso   1.000  Ir
  Ir61     1.0000 0.84850  0.11117  0.23970  Biso   1.000  Ir
  Ir62     1.0000 0.65150  0.88883  0.73970  Biso   1.000  Ir
  Ir63     1.0000 0.65150  0.11117  0.76030  Biso   1.000  Ir
  Ir64     1.0000 0.84850  0.88883  0.26030  Biso   1.000  Ir
  Ir65     1.0000 0.76030  0.65150  0.11117  Biso   1.000  Ir
  Ir66     1.0000 0.76030  0.34850  0.38883  Biso   1.000  Ir
  Ir67     1.0000 0.73970  0.34850  0.61117  Biso   1.000  Ir
  Ir68     1.0000 0.73970  0.65150  0.88883  Biso   1.000  Ir
  Ir69     1.0000 0.38883  0.23970  0.15150  Biso   1.000  Ir
  Ir70     1.0000 0.11117  0.23970  0.84850  Biso   1.000  Ir
  Ir71     1.0000 0.88883  0.26030  0.84850  Biso   1.000  Ir
  Ir72     1.0000 0.61117  0.26030  0.15150  Biso   1.000  Ir
  Ir73     1.0000 0.86117  0.59850  0.98970  Biso   1.000  Ir
  Ir74     1.0000 0.63883  0.40150  0.48970  Biso   1.000  Ir
  Ir75     1.0000 0.86117  0.40150  0.51030  Biso   1.000  Ir
  Ir76     1.0000 0.63883  0.59850  0.01030  Biso   1.000  Ir
  Ir77     1.0000 0.90150  0.01030  0.36117  Biso   1.000  Ir
  Ir78     1.0000 0.59850  0.01030  0.63883  Biso   1.000  Ir
  Ir79     1.0000 0.59850  0.98970  0.86117  Biso   1.000  Ir
  Ir80     1.0000 0.90150  0.98970  0.13883  Biso   1.000  Ir
  Ir81     1.0000 0.98970  0.13883  0.90150  Biso   1.000  Ir
  Ir82     1.0000 0.48970  0.36117  0.09850  Biso   1.000  Ir
  Ir83     1.0000 0.51030  0.13883  0.09850  Biso   1.000  Ir
  Ir84     1.0000 0.01030  0.36117  0.90150  Biso   1.000  Ir
  Ir85     1.0000 0.65150  0.38883  0.26030  Biso   1.000  Ir
  Ir86     1.0000 0.84850  0.61117  0.76030  Biso   1.000  Ir
  Ir87     1.0000 0.84850  0.38883  0.73970  Biso   1.000  Ir
  Ir88     1.0000 0.65150  0.61117  0.23970  Biso   1.000  Ir
  Ir89     1.0000 0.73970  0.84850  0.38883  Biso   1.000  Ir
  Ir90     1.0000 0.73970  0.15150  0.11117  Biso   1.000  Ir
  Ir91     1.0000 0.76030  0.15150  0.88883  Biso   1.000  Ir
  Ir92     1.0000 0.76030  0.84850  0.61117  Biso   1.000  Ir
  Ir93     1.0000 0.11117  0.26030  0.34850  Biso   1.000  Ir
  Ir94     1.0000 0.38883  0.26030  0.65150  Biso   1.000  Ir
  Ir95     1.0000 0.61117  0.23970  0.65150  Biso   1.000  Ir
  Ir96     1.0000 0.88883  0.23970  0.34850  Biso   1.000  Ir
