data_image0
_cell_length_a       5.36139
_cell_length_b       5.36139
_cell_length_c       83.7291
_cell_angle_alpha    90
_cell_angle_beta     90
_cell_angle_gamma    120

_symmetry_space_group_name_H-M    "P 1"
_symmetry_int_tables_number       1

loop_
  _symmetry_equiv_pos_as_xyz
  'x, y, z'

loop_
  _atom_site_label
  _atom_site_occupancy
  _atom_site_fract_x
  _atom_site_fract_y
  _atom_site_fract_z
  _atom_site_thermal_displace_type
  _atom_site_B_iso_or_equiv
  _atom_site_type_symbol
  Ir1      1.0000 0.33333  0.66667  0.02083  Biso   1.000  Ir
  Ir2      1.0000 0.66667  0.33333  0.52083  Biso   1.000  Ir
  Ir3      1.0000 0.33333  0.66667  0.60415  Biso   1.000  Ir
  Ir4      1.0000 0.66667  0.33333  0.10415  Biso   1.000  Ir
  Ir5      1.0000 0.33333  0.66667  0.18749  Biso   1.000  Ir
  Ir6      1.0000 0.66667  0.33333  0.68749  Biso   1.000  Ir
  Ir7      1.0000 0.33333  0.66667  0.77082  Biso   1.000  Ir
  Ir8      1.0000 0.66667  0.33333  0.27082  Biso   1.000  Ir
  Ir9      1.0000 0.33333  0.66667  0.35416  Biso   1.000  Ir
  Ir10     1.0000 0.66667  0.33333  0.85416  Biso   1.000  Ir
  Ir11     1.0000 0.33333  0.66667  0.43749  Biso   1.000  Ir
  Ir12     1.0000 0.66667  0.33333  0.93749  Biso   1.000  Ir
  O1       1.0000 0.33333  0.66667  0.50022  Biso   1.000  O
  O2       1.0000 0.66667  0.33333  0.00022  Biso   1.000  O
  O3       1.0000 0.00000  0.00000  0.04146  Biso   1.000  O
  O4       1.0000 0.00000  0.00000  0.54146  Biso   1.000  O
  O5       1.0000 0.33333  0.66667  0.08356  Biso   1.000  O
  O6       1.0000 0.66667  0.33333  0.58356  Biso   1.000  O
  O7       1.0000 0.00000  0.00000  0.12479  Biso   1.000  O
  O8       1.0000 0.00000  0.00000  0.62479  Biso   1.000  O
  O9       1.0000 0.33333  0.66667  0.66689  Biso   1.000  O
  O10      1.0000 0.66667  0.33333  0.16689  Biso   1.000  O
  O11      1.0000 0.00000  0.00000  0.20812  Biso   1.000  O
  O12      1.0000 0.00000  0.00000  0.70812  Biso   1.000  O
  O13      1.0000 0.33333  0.66667  0.25022  Biso   1.000  O
  O14      1.0000 0.66667  0.33333  0.75022  Biso   1.000  O
  O15      1.0000 0.00000  0.00000  0.29145  Biso   1.000  O
  O16      1.0000 0.00000  0.00000  0.79145  Biso   1.000  O
  O17      1.0000 0.33333  0.66667  0.83356  Biso   1.000  O
  O18      1.0000 0.66667  0.33333  0.33356  Biso   1.000  O
  O19      1.0000 0.00000  0.00000  0.37479  Biso   1.000  O
  O20      1.0000 0.00000  0.00000  0.87479  Biso   1.000  O
  O21      1.0000 0.33333  0.66667  0.91689  Biso   1.000  O
  O22      1.0000 0.66667  0.33333  0.41689  Biso   1.000  O
  O23      1.0000 0.00000  0.00000  0.45812  Biso   1.000  O
  O24      1.0000 0.00000  0.00000  0.95812  Biso   1.000  O
