data_image0
_cell_length_a       22.9516
_cell_length_b       16.5146
_cell_length_c       9.14486
_cell_angle_alpha    90
_cell_angle_beta     91.9167
_cell_angle_gamma    90

_symmetry_space_group_name_H-M    "P 1"
_symmetry_int_tables_number       1

loop_
  _symmetry_equiv_pos_as_xyz
  'x, y, z'

loop_
  _atom_site_label
  _atom_site_occupancy
  _atom_site_fract_x
  _atom_site_fract_y
  _atom_site_fract_z
  _atom_site_thermal_displace_type
  _atom_site_B_iso_or_equiv
  _atom_site_type_symbol
  O1       1.0000 0.80961  0.14238  0.75093  Biso   1.000  O
  O2       1.0000 0.19039  0.14238  0.24907  Biso   1.000  O
  O3       1.0000 0.19039  0.85762  0.24907  Biso   1.000  O
  O4       1.0000 0.80961  0.85762  0.75093  Biso   1.000  O
  O5       1.0000 0.57550  0.68657  0.76687  Biso   1.000  O
  O6       1.0000 0.42450  0.68657  0.23313  Biso   1.000  O
  O7       1.0000 0.42450  0.31343  0.23313  Biso   1.000  O
  O8       1.0000 0.57550  0.31343  0.76687  Biso   1.000  O
  O9       1.0000 0.20955  0.86764  0.91977  Biso   1.000  O
  O10      1.0000 0.79045  0.86764  0.08023  Biso   1.000  O
  O11      1.0000 0.79045  0.13236  0.08023  Biso   1.000  O
  O12      1.0000 0.20955  0.13236  0.91977  Biso   1.000  O
  O13      1.0000 0.31956  0.81798  0.18013  Biso   1.000  O
  O14      1.0000 0.68045  0.81798  0.81987  Biso   1.000  O
  O15      1.0000 0.68045  0.18202  0.81987  Biso   1.000  O
  O16      1.0000 0.31956  0.18202  0.18013  Biso   1.000  O
  O17      1.0000 0.84237  0.00000  0.54648  Biso   1.000  O
  O18      1.0000 0.15763  0.00000  0.45352  Biso   1.000  O
  O19      1.0000 0.50000  0.37126  0.00000  Biso   1.000  O
  O20      1.0000 0.50000  0.62874  0.00000  Biso   1.000  O
  O21      1.0000 0.32106  0.32071  0.42016  Biso   1.000  O
  O22      1.0000 0.67894  0.32071  0.57984  Biso   1.000  O
  O23      1.0000 0.67894  0.67929  0.57984  Biso   1.000  O
  O24      1.0000 0.32106  0.67929  0.42016  Biso   1.000  O
  O25      1.0000 0.43810  0.35887  0.66232  Biso   1.000  O
  O26      1.0000 0.56190  0.35887  0.33768  Biso   1.000  O
  O27      1.0000 0.56190  0.64113  0.33768  Biso   1.000  O
  O28      1.0000 0.43810  0.64113  0.66232  Biso   1.000  O
  O29      1.0000 0.03517  0.00000  0.77339  Biso   1.000  O
  O30      1.0000 0.96483  0.00000  0.22661  Biso   1.000  O
  O31      1.0000 0.27211  0.00000  0.15164  Biso   1.000  O
  O32      1.0000 0.72789  0.00000  0.84836  Biso   1.000  O
  O33      1.0000 0.30961  0.64238  0.75093  Biso   1.000  O
  O34      1.0000 0.69039  0.64238  0.24907  Biso   1.000  O
  O35      1.0000 0.69039  0.35762  0.24907  Biso   1.000  O
  O36      1.0000 0.30961  0.35762  0.75093  Biso   1.000  O
  O37      1.0000 0.07550  0.18657  0.76687  Biso   1.000  O
  O38      1.0000 0.92450  0.18657  0.23313  Biso   1.000  O
  O39      1.0000 0.92450  0.81343  0.23313  Biso   1.000  O
  O40      1.0000 0.07550  0.81343  0.76687  Biso   1.000  O
  O41      1.0000 0.70955  0.36763  0.91977  Biso   1.000  O
  O42      1.0000 0.29045  0.36763  0.08023  Biso   1.000  O
  O43      1.0000 0.29045  0.63236  0.08023  Biso   1.000  O
  O44      1.0000 0.70955  0.63236  0.91977  Biso   1.000  O
  O45      1.0000 0.81956  0.31798  0.18013  Biso   1.000  O
  O46      1.0000 0.18045  0.31798  0.81987  Biso   1.000  O
  O47      1.0000 0.18045  0.68202  0.81987  Biso   1.000  O
  O48      1.0000 0.81956  0.68202  0.18013  Biso   1.000  O
  O49      1.0000 0.34237  0.50000  0.54648  Biso   1.000  O
  O50      1.0000 0.65763  0.50000  0.45352  Biso   1.000  O
  O51      1.0000 0.00000  0.87126  0.00000  Biso   1.000  O
  O52      1.0000 0.00000  0.12874  0.00000  Biso   1.000  O
  O53      1.0000 0.82106  0.82071  0.42016  Biso   1.000  O
  O54      1.0000 0.17894  0.82071  0.57984  Biso   1.000  O
  O55      1.0000 0.17894  0.17929  0.57984  Biso   1.000  O
  O56      1.0000 0.82106  0.17929  0.42016  Biso   1.000  O
  O57      1.0000 0.93810  0.85887  0.66232  Biso   1.000  O
  O58      1.0000 0.06190  0.85887  0.33768  Biso   1.000  O
  O59      1.0000 0.06190  0.14113  0.33768  Biso   1.000  O
  O60      1.0000 0.93810  0.14113  0.66232  Biso   1.000  O
  O61      1.0000 0.53517  0.50000  0.77339  Biso   1.000  O
  O62      1.0000 0.46483  0.50000  0.22661  Biso   1.000  O
  O63      1.0000 0.77211  0.50000  0.15164  Biso   1.000  O
  O64      1.0000 0.22789  0.50000  0.84836  Biso   1.000  O
  Ir1      1.0000 0.33896  0.70354  0.22769  Biso   1.000  Ir
  Ir2      1.0000 0.66105  0.70354  0.77231  Biso   1.000  Ir
  Ir3      1.0000 0.66105  0.29646  0.77231  Biso   1.000  Ir
  Ir4      1.0000 0.33896  0.29646  0.22769  Biso   1.000  Ir
  Ir5      1.0000 0.24767  0.88600  0.12546  Biso   1.000  Ir
  Ir6      1.0000 0.75233  0.88600  0.87454  Biso   1.000  Ir
  Ir7      1.0000 0.75233  0.11400  0.87454  Biso   1.000  Ir
  Ir8      1.0000 0.24767  0.11400  0.12546  Biso   1.000  Ir
  Ir9      1.0000 0.51218  0.61372  0.80097  Biso   1.000  Ir
  Ir10     1.0000 0.48782  0.61372  0.19903  Biso   1.000  Ir
  Ir11     1.0000 0.48782  0.38628  0.19903  Biso   1.000  Ir
  Ir12     1.0000 0.51218  0.38628  0.80097  Biso   1.000  Ir
  Ir13     1.0000 0.85266  0.11555  0.59580  Biso   1.000  Ir
  Ir14     1.0000 0.14734  0.11555  0.40420  Biso   1.000  Ir
  Ir15     1.0000 0.14734  0.88445  0.40420  Biso   1.000  Ir
  Ir16     1.0000 0.85266  0.88445  0.59580  Biso   1.000  Ir
  Ir17     1.0000 0.83895  0.20354  0.22769  Biso   1.000  Ir
  Ir18     1.0000 0.16105  0.20354  0.77231  Biso   1.000  Ir
  Ir19     1.0000 0.16105  0.79646  0.77231  Biso   1.000  Ir
  Ir20     1.0000 0.83895  0.79646  0.22769  Biso   1.000  Ir
  Ir21     1.0000 0.74767  0.38600  0.12546  Biso   1.000  Ir
  Ir22     1.0000 0.25233  0.38600  0.87454  Biso   1.000  Ir
  Ir23     1.0000 0.25233  0.61400  0.87454  Biso   1.000  Ir
  Ir24     1.0000 0.74767  0.61400  0.12546  Biso   1.000  Ir
  Ir25     1.0000 0.01218  0.11372  0.80097  Biso   1.000  Ir
  Ir26     1.0000 0.98782  0.11372  0.19903  Biso   1.000  Ir
  Ir27     1.0000 0.98782  0.88628  0.19903  Biso   1.000  Ir
  Ir28     1.0000 0.01218  0.88628  0.80097  Biso   1.000  Ir
  Ir29     1.0000 0.35266  0.61555  0.59580  Biso   1.000  Ir
  Ir30     1.0000 0.64734  0.61555  0.40420  Biso   1.000  Ir
  Ir31     1.0000 0.64734  0.38445  0.40420  Biso   1.000  Ir
  Ir32     1.0000 0.35266  0.38445  0.59580  Biso   1.000  Ir
