data_image0
_cell_length_a       19.9229
_cell_length_b       19.9229
_cell_length_c       17.5232
_cell_angle_alpha    90
_cell_angle_beta     90
_cell_angle_gamma    120

_symmetry_space_group_name_H-M    "P 1"
_symmetry_int_tables_number       1

loop_
  _symmetry_equiv_pos_as_xyz
  'x, y, z'

loop_
  _atom_site_label
  _atom_site_occupancy
  _atom_site_fract_x
  _atom_site_fract_y
  _atom_site_fract_z
  _atom_site_thermal_displace_type
  _atom_site_B_iso_or_equiv
  _atom_site_type_symbol
  Ir1      1.0000 0.33321  0.89647  0.56347  Biso   1.000  Ir
  Ir2      1.0000 0.10353  0.43674  0.56347  Biso   1.000  Ir
  Ir3      1.0000 0.56326  0.66679  0.56347  Biso   1.000  Ir
  Ir4      1.0000 0.43674  0.10353  0.43652  Biso   1.000  Ir
  Ir5      1.0000 0.66679  0.56326  0.43652  Biso   1.000  Ir
  Ir6      1.0000 0.89647  0.33321  0.43652  Biso   1.000  Ir
  Ir7      1.0000 0.66679  0.10353  0.43652  Biso   1.000  Ir
  Ir8      1.0000 0.89647  0.56326  0.43652  Biso   1.000  Ir
  Ir9      1.0000 0.43674  0.33321  0.43652  Biso   1.000  Ir
  Ir10     1.0000 0.56326  0.89647  0.56347  Biso   1.000  Ir
  Ir11     1.0000 0.33321  0.43674  0.56347  Biso   1.000  Ir
  Ir12     1.0000 0.10353  0.66679  0.56347  Biso   1.000  Ir
  Ir13     1.0000 0.99987  0.22980  0.89681  Biso   1.000  Ir
  Ir14     1.0000 0.77020  0.77007  0.89681  Biso   1.000  Ir
  Ir15     1.0000 0.22993  0.00013  0.89681  Biso   1.000  Ir
  Ir16     1.0000 0.10340  0.43686  0.76986  Biso   1.000  Ir
  Ir17     1.0000 0.33346  0.89660  0.76986  Biso   1.000  Ir
  Ir18     1.0000 0.56314  0.66654  0.76986  Biso   1.000  Ir
  Ir19     1.0000 0.33346  0.43686  0.76986  Biso   1.000  Ir
  Ir20     1.0000 0.56314  0.89660  0.76986  Biso   1.000  Ir
  Ir21     1.0000 0.10340  0.66654  0.76986  Biso   1.000  Ir
  Ir22     1.0000 0.22993  0.22980  0.89681  Biso   1.000  Ir
  Ir23     1.0000 0.99987  0.77007  0.89681  Biso   1.000  Ir
  Ir24     1.0000 0.77020  0.00013  0.89681  Biso   1.000  Ir
  Ir25     1.0000 0.66654  0.56314  0.23014  Biso   1.000  Ir
  Ir26     1.0000 0.43686  0.10340  0.23014  Biso   1.000  Ir
  Ir27     1.0000 0.89660  0.33346  0.23014  Biso   1.000  Ir
  Ir28     1.0000 0.77007  0.77020  0.10319  Biso   1.000  Ir
  Ir29     1.0000 0.00013  0.22993  0.10319  Biso   1.000  Ir
  Ir30     1.0000 0.22980  0.99987  0.10319  Biso   1.000  Ir
  Ir31     1.0000 0.00013  0.77020  0.10319  Biso   1.000  Ir
  Ir32     1.0000 0.22980  0.22993  0.10319  Biso   1.000  Ir
  Ir33     1.0000 0.77007  0.99987  0.10319  Biso   1.000  Ir
  Ir34     1.0000 0.89660  0.56314  0.23014  Biso   1.000  Ir
  Ir35     1.0000 0.66654  0.10340  0.23014  Biso   1.000  Ir
  Ir36     1.0000 0.43686  0.33346  0.23014  Biso   1.000  Ir
  O1       1.0000 0.89978  0.79956  0.11816  Biso   1.000  O
  O2       1.0000 0.20044  0.10022  0.11816  Biso   1.000  O
  O3       1.0000 0.89978  0.10022  0.11816  Biso   1.000  O
  O4       1.0000 0.10022  0.20044  0.88184  Biso   1.000  O
  O5       1.0000 0.10022  0.89978  0.88184  Biso   1.000  O
  O6       1.0000 0.79956  0.89978  0.88184  Biso   1.000  O
  O7       1.0000 0.21376  0.42752  0.53935  Biso   1.000  O
  O8       1.0000 0.57248  0.78624  0.53935  Biso   1.000  O
  O9       1.0000 0.21376  0.78624  0.53935  Biso   1.000  O
  O10      1.0000 0.78624  0.57248  0.46065  Biso   1.000  O
  O11      1.0000 0.78624  0.21376  0.46065  Biso   1.000  O
  O12      1.0000 0.42752  0.21376  0.46065  Biso   1.000  O
  O13      1.0000 0.00000  0.64707  0.50000  Biso   1.000  O
  O14      1.0000 0.35293  0.35293  0.50000  Biso   1.000  O
  O15      1.0000 0.64707  0.00000  0.50000  Biso   1.000  O
  O16      1.0000 0.00000  0.35293  0.50000  Biso   1.000  O
  O17      1.0000 0.64707  0.64707  0.50000  Biso   1.000  O
  O18      1.0000 0.35293  0.00000  0.50000  Biso   1.000  O
  O19      1.0000 0.33333  0.93172  0.66667  Biso   1.000  O
  O20      1.0000 0.06828  0.40162  0.66667  Biso   1.000  O
  O21      1.0000 0.93172  0.33333  0.33333  Biso   1.000  O
  O22      1.0000 0.66667  0.06828  0.33333  Biso   1.000  O
  O23      1.0000 0.59838  0.93172  0.66667  Biso   1.000  O
  O24      1.0000 0.06828  0.66667  0.66667  Biso   1.000  O
  O25      1.0000 0.56645  0.13290  0.45149  Biso   1.000  O
  O26      1.0000 0.86710  0.43355  0.45149  Biso   1.000  O
  O27      1.0000 0.56645  0.43355  0.45149  Biso   1.000  O
  O28      1.0000 0.76689  0.53377  0.21517  Biso   1.000  O
  O29      1.0000 0.76688  0.23312  0.21517  Biso   1.000  O
  O30      1.0000 0.46623  0.23312  0.21517  Biso   1.000  O
  O31      1.0000 0.88043  0.76085  0.87268  Biso   1.000  O
  O32      1.0000 0.23915  0.11958  0.87268  Biso   1.000  O
  O33      1.0000 0.88043  0.11958  0.87268  Biso   1.000  O
  O34      1.0000 0.45291  0.90582  0.79399  Biso   1.000  O
  O35      1.0000 0.45291  0.54709  0.79399  Biso   1.000  O
  O36      1.0000 0.09418  0.54709  0.79399  Biso   1.000  O
  O37      1.0000 0.66667  0.98041  0.83333  Biso   1.000  O
  O38      1.0000 0.01959  0.68626  0.83333  Biso   1.000  O
  O39      1.0000 0.31374  0.33333  0.83333  Biso   1.000  O
  O40      1.0000 0.66667  0.68626  0.83333  Biso   1.000  O
  O41      1.0000 0.31374  0.98041  0.83333  Biso   1.000  O
  O42      1.0000 0.01959  0.33333  0.83333  Biso   1.000  O
  O43      1.0000 0.00000  0.26505  0.00000  Biso   1.000  O
  O44      1.0000 0.73495  0.73495  0.00000  Biso   1.000  O
  O45      1.0000 0.59838  0.66667  0.66667  Biso   1.000  O
  O46      1.0000 0.33333  0.40162  0.66667  Biso   1.000  O
  O47      1.0000 0.26505  0.26505  0.00000  Biso   1.000  O
  O48      1.0000 0.73495  0.00000  0.00000  Biso   1.000  O
  O49      1.0000 0.23312  0.46623  0.78483  Biso   1.000  O
  O50      1.0000 0.53377  0.76689  0.78483  Biso   1.000  O
  O51      1.0000 0.23312  0.76689  0.78483  Biso   1.000  O
  O52      1.0000 0.43355  0.86710  0.54851  Biso   1.000  O
  O53      1.0000 0.43355  0.56645  0.54851  Biso   1.000  O
  O54      1.0000 0.13290  0.56645  0.54851  Biso   1.000  O
  O55      1.0000 0.54709  0.09418  0.20601  Biso   1.000  O
  O56      1.0000 0.90582  0.45291  0.20601  Biso   1.000  O
  O57      1.0000 0.54709  0.45291  0.20601  Biso   1.000  O
  O58      1.0000 0.11958  0.23915  0.12732  Biso   1.000  O
  O59      1.0000 0.11958  0.88043  0.12732  Biso   1.000  O
  O60      1.0000 0.76085  0.88043  0.12732  Biso   1.000  O
  O61      1.0000 0.33333  0.31374  0.16667  Biso   1.000  O
  O62      1.0000 0.68626  0.01959  0.16667  Biso   1.000  O
  O63      1.0000 0.98040  0.66667  0.16667  Biso   1.000  O
  O64      1.0000 0.33333  0.01959  0.16667  Biso   1.000  O
  O65      1.0000 0.98040  0.31374  0.16667  Biso   1.000  O
  O66      1.0000 0.68626  0.66667  0.16667  Biso   1.000  O
  O67      1.0000 0.66667  0.59838  0.33333  Biso   1.000  O
  O68      1.0000 0.40162  0.06828  0.33333  Biso   1.000  O
  O69      1.0000 0.26505  0.00000  0.00000  Biso   1.000  O
  O70      1.0000 0.00000  0.73495  0.00000  Biso   1.000  O
  O71      1.0000 0.93172  0.59838  0.33333  Biso   1.000  O
  O72      1.0000 0.40162  0.33333  0.33333  Biso   1.000  O
