data_image0
_cell_length_a       5.00035
_cell_length_b       5.26689
_cell_length_c       18.7416
_cell_angle_alpha    90
_cell_angle_beta     90
_cell_angle_gamma    90

_symmetry_space_group_name_H-M    "P 1"
_symmetry_int_tables_number       1

loop_
  _symmetry_equiv_pos_as_xyz
  'x, y, z'

loop_
  _atom_site_label
  _atom_site_occupancy
  _atom_site_fract_x
  _atom_site_fract_y
  _atom_site_fract_z
  _atom_site_thermal_displace_type
  _atom_site_B_iso_or_equiv
  _atom_site_type_symbol
  O1       1.0000 0.26011  0.43816  0.12798  Biso   1.000  O
  O2       1.0000 0.73990  0.06184  0.12798  Biso   1.000  O
  O3       1.0000 0.73990  0.93815  0.37202  Biso   1.000  O
  O4       1.0000 0.26011  0.56185  0.37202  Biso   1.000  O
  O5       1.0000 0.18082  0.00000  0.25000  Biso   1.000  O
  O6       1.0000 0.81918  0.50000  0.25000  Biso   1.000  O
  O7       1.0000 0.75000  0.44588  0.00000  Biso   1.000  O
  O8       1.0000 0.25000  0.05412  0.00000  Biso   1.000  O
  O9       1.0000 0.76011  0.93815  0.62798  Biso   1.000  O
  O10      1.0000 0.23990  0.56185  0.62798  Biso   1.000  O
  O11      1.0000 0.23990  0.43816  0.87202  Biso   1.000  O
  O12      1.0000 0.76011  0.06184  0.87202  Biso   1.000  O
  O13      1.0000 0.68082  0.50000  0.75000  Biso   1.000  O
  O14      1.0000 0.31918  0.00000  0.75000  Biso   1.000  O
  O15      1.0000 0.25000  0.94588  0.50000  Biso   1.000  O
  O16      1.0000 0.75000  0.55412  0.50000  Biso   1.000  O
  Ir1      1.0000 0.00000  0.75000  0.31135  Biso   1.000  Ir
  Ir2      1.0000 0.00000  0.25000  0.18865  Biso   1.000  Ir
  Ir3      1.0000 0.50000  0.25000  0.06267  Biso   1.000  Ir
  Ir4      1.0000 0.50000  0.75000  0.43733  Biso   1.000  Ir
  Ir5      1.0000 0.50000  0.25000  0.81135  Biso   1.000  Ir
  Ir6      1.0000 0.50000  0.75000  0.68865  Biso   1.000  Ir
  Ir7      1.0000 0.00000  0.75000  0.56268  Biso   1.000  Ir
  Ir8      1.0000 0.00000  0.25000  0.93733  Biso   1.000  Ir
