data_image0
_cell_length_a       5.36234
_cell_length_b       5.36234
_cell_length_c       41.8675
_cell_angle_alpha    90
_cell_angle_beta     90
_cell_angle_gamma    120

_symmetry_space_group_name_H-M    "P 1"
_symmetry_int_tables_number       1

loop_
  _symmetry_equiv_pos_as_xyz
  'x, y, z'

loop_
  _atom_site_label
  _atom_site_occupancy
  _atom_site_fract_x
  _atom_site_fract_y
  _atom_site_fract_z
  _atom_site_thermal_displace_type
  _atom_site_B_iso_or_equiv
  _atom_site_type_symbol
  Ir1      1.0000 0.00000  0.00000  0.04171  Biso   1.000  Ir
  Ir2      1.0000 0.33333  0.66667  0.20834  Biso   1.000  Ir
  Ir3      1.0000 0.66667  0.33333  0.37499  Biso   1.000  Ir
  Ir4      1.0000 0.33333  0.66667  0.54166  Biso   1.000  Ir
  Ir5      1.0000 0.33333  0.66667  0.70830  Biso   1.000  Ir
  Ir6      1.0000 0.33333  0.66667  0.87500  Biso   1.000  Ir
  O1       1.0000 0.66667  0.33333  0.00048  Biso   1.000  O
  O2       1.0000 0.33333  0.66667  0.08290  Biso   1.000  O
  O3       1.0000 0.66667  0.33333  0.16711  Biso   1.000  O
  O4       1.0000 0.00000  0.00000  0.24955  Biso   1.000  O
  O5       1.0000 0.33333  0.66667  0.33376  Biso   1.000  O
  O6       1.0000 0.00000  0.00000  0.41622  Biso   1.000  O
  O7       1.0000 0.66667  0.33333  0.50044  Biso   1.000  O
  O8       1.0000 0.00000  0.00000  0.58288  Biso   1.000  O
  O9       1.0000 0.66667  0.33333  0.66710  Biso   1.000  O
  O10      1.0000 0.00000  0.00000  0.74953  Biso   1.000  O
  O11      1.0000 0.66667  0.33333  0.83379  Biso   1.000  O
  O12      1.0000 0.00000  0.00000  0.91623  Biso   1.000  O
