data_image0
_cell_length_a       18.5013
_cell_length_b       11.3973
_cell_length_c       18.6836
_cell_angle_alpha    90
_cell_angle_beta     109.204
_cell_angle_gamma    90

_symmetry_space_group_name_H-M    "P 1"
_symmetry_int_tables_number       1

loop_
  _symmetry_equiv_pos_as_xyz
  'x, y, z'

loop_
  _atom_site_label
  _atom_site_occupancy
  _atom_site_fract_x
  _atom_site_fract_y
  _atom_site_fract_z
  _atom_site_thermal_displace_type
  _atom_site_B_iso_or_equiv
  _atom_site_type_symbol
  O1       1.0000 0.89250  0.27162  0.13437  Biso   1.000  O
  O2       1.0000 0.10750  0.27162  0.86563  Biso   1.000  O
  O3       1.0000 0.10750  0.72838  0.86563  Biso   1.000  O
  O4       1.0000 0.89250  0.72838  0.13437  Biso   1.000  O
  O5       1.0000 0.00459  0.74142  0.33826  Biso   1.000  O
  O6       1.0000 0.99541  0.74142  0.66174  Biso   1.000  O
  O7       1.0000 0.99541  0.25858  0.66174  Biso   1.000  O
  O8       1.0000 0.00459  0.25858  0.33826  Biso   1.000  O
  O9       1.0000 0.81999  0.77322  0.92142  Biso   1.000  O
  O10      1.0000 0.18001  0.77322  0.07858  Biso   1.000  O
  O11      1.0000 0.18001  0.22678  0.07858  Biso   1.000  O
  O12      1.0000 0.81999  0.22678  0.92142  Biso   1.000  O
  O13      1.0000 0.32369  0.26085  0.63861  Biso   1.000  O
  O14      1.0000 0.67631  0.26085  0.36139  Biso   1.000  O
  O15      1.0000 0.67631  0.73915  0.36139  Biso   1.000  O
  O16      1.0000 0.32369  0.73915  0.63861  Biso   1.000  O
  O17      1.0000 0.11260  0.50000  0.32872  Biso   1.000  O
  O18      1.0000 0.88740  0.50000  0.67128  Biso   1.000  O
  O19      1.0000 0.17267  0.21389  0.69591  Biso   1.000  O
  O20      1.0000 0.82733  0.21389  0.30409  Biso   1.000  O
  O21      1.0000 0.82733  0.78611  0.30409  Biso   1.000  O
  O22      1.0000 0.17267  0.78611  0.69591  Biso   1.000  O
  O23      1.0000 0.89317  0.50000  0.99262  Biso   1.000  O
  O24      1.0000 0.10683  0.50000  0.00738  Biso   1.000  O
  O25      1.0000 0.16306  0.28622  0.48821  Biso   1.000  O
  O26      1.0000 0.83694  0.28622  0.51179  Biso   1.000  O
  O27      1.0000 0.83694  0.71377  0.51179  Biso   1.000  O
  O28      1.0000 0.16306  0.71377  0.48821  Biso   1.000  O
  O29      1.0000 0.25583  0.00000  0.21588  Biso   1.000  O
  O30      1.0000 0.74417  0.00000  0.78412  Biso   1.000  O
  O31      1.0000 0.67991  0.71348  0.74969  Biso   1.000  O
  O32      1.0000 0.32009  0.71348  0.25031  Biso   1.000  O
  O33      1.0000 0.32009  0.28652  0.25031  Biso   1.000  O
  O34      1.0000 0.67991  0.28652  0.74969  Biso   1.000  O
  O35      1.0000 0.00000  0.25228  0.00000  Biso   1.000  O
  O36      1.0000 0.00000  0.74772  0.00000  Biso   1.000  O
  O37      1.0000 0.84253  0.21552  0.71869  Biso   1.000  O
  O38      1.0000 0.15747  0.21552  0.28131  Biso   1.000  O
  O39      1.0000 0.15747  0.78448  0.28131  Biso   1.000  O
  O40      1.0000 0.84253  0.78448  0.71869  Biso   1.000  O
  O41      1.0000 0.50053  0.27039  0.66044  Biso   1.000  O
  O42      1.0000 0.49947  0.27039  0.33956  Biso   1.000  O
  O43      1.0000 0.49947  0.72961  0.33956  Biso   1.000  O
  O44      1.0000 0.50053  0.72961  0.66044  Biso   1.000  O
  O45      1.0000 0.41231  0.00000  0.62171  Biso   1.000  O
  O46      1.0000 0.58769  0.00000  0.37829  Biso   1.000  O
  O47      1.0000 0.92666  0.00000  0.23787  Biso   1.000  O
  O48      1.0000 0.07334  0.00000  0.76213  Biso   1.000  O
  O49      1.0000 0.61488  0.78869  0.53792  Biso   1.000  O
  O50      1.0000 0.38512  0.78869  0.46208  Biso   1.000  O
  O51      1.0000 0.38512  0.21131  0.46208  Biso   1.000  O
  O52      1.0000 0.61488  0.21131  0.53792  Biso   1.000  O
  O53      1.0000 0.78482  0.50000  0.35249  Biso   1.000  O
  O54      1.0000 0.21518  0.50000  0.64751  Biso   1.000  O
  O55      1.0000 0.40295  0.50000  0.39626  Biso   1.000  O
  O56      1.0000 0.59705  0.50000  0.60374  Biso   1.000  O
  Ir1      1.0000 0.78163  0.31614  0.38325  Biso   1.000  Ir
  Ir2      1.0000 0.21837  0.31614  0.61675  Biso   1.000  Ir
  Ir3      1.0000 0.21837  0.68386  0.61675  Biso   1.000  Ir
  Ir4      1.0000 0.78163  0.68386  0.38325  Biso   1.000  Ir
  Ir5      1.0000 0.40509  0.18546  0.59532  Biso   1.000  Ir
  Ir6      1.0000 0.59491  0.18546  0.40468  Biso   1.000  Ir
  Ir7      1.0000 0.59491  0.81454  0.40468  Biso   1.000  Ir
  Ir8      1.0000 0.40509  0.81454  0.59532  Biso   1.000  Ir
  Ir9      1.0000 0.10968  0.68440  0.35958  Biso   1.000  Ir
  Ir10     1.0000 0.89032  0.68440  0.64042  Biso   1.000  Ir
  Ir11     1.0000 0.89032  0.31560  0.64042  Biso   1.000  Ir
  Ir12     1.0000 0.10968  0.31560  0.35958  Biso   1.000  Ir
  Ir13     1.0000 0.90175  0.31301  0.01254  Biso   1.000  Ir
  Ir14     1.0000 0.09825  0.31301  0.98746  Biso   1.000  Ir
  Ir15     1.0000 0.09825  0.68698  0.98746  Biso   1.000  Ir
  Ir16     1.0000 0.90175  0.68698  0.01254  Biso   1.000  Ir
  Ir17     1.0000 0.08691  0.18553  0.74661  Biso   1.000  Ir
  Ir18     1.0000 0.91310  0.18553  0.25339  Biso   1.000  Ir
  Ir19     1.0000 0.91310  0.81447  0.25339  Biso   1.000  Ir
  Ir20     1.0000 0.08691  0.81447  0.74661  Biso   1.000  Ir
  Ir21     1.0000 0.22759  0.81715  0.20678  Biso   1.000  Ir
  Ir22     1.0000 0.77242  0.81715  0.79322  Biso   1.000  Ir
  Ir23     1.0000 0.77242  0.18285  0.79322  Biso   1.000  Ir
  Ir24     1.0000 0.22759  0.18285  0.20678  Biso   1.000  Ir
  Ir25     1.0000 0.40224  0.31679  0.36160  Biso   1.000  Ir
  Ir26     1.0000 0.59776  0.31679  0.63841  Biso   1.000  Ir
  Ir27     1.0000 0.59776  0.68321  0.63841  Biso   1.000  Ir
  Ir28     1.0000 0.40224  0.68321  0.36160  Biso   1.000  Ir
