data_image0
_cell_length_a       8.35947
_cell_length_b       8.35947
_cell_length_c       8.35947
_cell_angle_alpha    90
_cell_angle_beta     90
_cell_angle_gamma    90

_symmetry_space_group_name_H-M    "P 1"
_symmetry_int_tables_number       1

loop_
  _symmetry_equiv_pos_as_xyz
  'x, y, z'

loop_
  _atom_site_label
  _atom_site_occupancy
  _atom_site_fract_x
  _atom_site_fract_y
  _atom_site_fract_z
  _atom_site_thermal_displace_type
  _atom_site_B_iso_or_equiv
  _atom_site_type_symbol
  O1       1.0000 0.63688  0.67759  0.01236  Biso   1.000  O
  O2       1.0000 0.86312  0.32241  0.51236  Biso   1.000  O
  O3       1.0000 0.36312  0.17759  0.48764  Biso   1.000  O
  O4       1.0000 0.13688  0.82241  0.98764  Biso   1.000  O
  O5       1.0000 0.01236  0.63688  0.67759  Biso   1.000  O
  O6       1.0000 0.51236  0.86312  0.32241  Biso   1.000  O
  O7       1.0000 0.48764  0.36312  0.17759  Biso   1.000  O
  O8       1.0000 0.98764  0.13688  0.82241  Biso   1.000  O
  O9       1.0000 0.67759  0.01236  0.63688  Biso   1.000  O
  O10      1.0000 0.32241  0.51236  0.86312  Biso   1.000  O
  O11      1.0000 0.17759  0.48764  0.36312  Biso   1.000  O
  O12      1.0000 0.82241  0.98764  0.13688  Biso   1.000  O
  O13      1.0000 0.16143  0.16143  0.16143  Biso   1.000  O
  O14      1.0000 0.33858  0.83858  0.66143  Biso   1.000  O
  O15      1.0000 0.83858  0.66143  0.33858  Biso   1.000  O
  O16      1.0000 0.66143  0.33858  0.83858  Biso   1.000  O
  Ir1      1.0000 0.02740  0.02740  0.02740  Biso   1.000  Ir
  Ir2      1.0000 0.47260  0.97260  0.52740  Biso   1.000  Ir
  Ir3      1.0000 0.97260  0.52740  0.47260  Biso   1.000  Ir
  Ir4      1.0000 0.52740  0.47260  0.97260  Biso   1.000  Ir
  Ir5      1.0000 0.29612  0.29612  0.29612  Biso   1.000  Ir
  Ir6      1.0000 0.20388  0.70388  0.79612  Biso   1.000  Ir
  Ir7      1.0000 0.70388  0.79612  0.20388  Biso   1.000  Ir
  Ir8      1.0000 0.79612  0.20388  0.70388  Biso   1.000  Ir
