data_image0
_cell_length_a       7.41335
_cell_length_b       5.61468
_cell_length_c       15.3149
_cell_angle_alpha    90
_cell_angle_beta     90
_cell_angle_gamma    90

_symmetry_space_group_name_H-M    "P 1"
_symmetry_int_tables_number       1

loop_
  _symmetry_equiv_pos_as_xyz
  'x, y, z'

loop_
  _atom_site_label
  _atom_site_occupancy
  _atom_site_fract_x
  _atom_site_fract_y
  _atom_site_fract_z
  _atom_site_thermal_displace_type
  _atom_site_B_iso_or_equiv
  _atom_site_type_symbol
  Ir1      1.0000 0.31986  0.25000  0.00000  Biso   1.000  Ir
  Ir2      1.0000 0.68014  0.75000  0.50000  Biso   1.000  Ir
  Ir3      1.0000 0.68014  0.75000  0.00000  Biso   1.000  Ir
  Ir4      1.0000 0.31986  0.25000  0.50000  Biso   1.000  Ir
  Ir5      1.0000 0.91238  0.23157  0.09741  Biso   1.000  Ir
  Ir6      1.0000 0.08762  0.76843  0.59741  Biso   1.000  Ir
  Ir7      1.0000 0.08762  0.73157  0.40259  Biso   1.000  Ir
  Ir8      1.0000 0.91238  0.26843  0.90259  Biso   1.000  Ir
  Ir9      1.0000 0.08762  0.76843  0.90259  Biso   1.000  Ir
  Ir10     1.0000 0.91238  0.23157  0.40259  Biso   1.000  Ir
  Ir11     1.0000 0.91238  0.26843  0.59741  Biso   1.000  Ir
  Ir12     1.0000 0.08762  0.73157  0.09741  Biso   1.000  Ir
  O1       1.0000 0.59515  0.10438  0.09033  Biso   1.000  O
  O2       1.0000 0.40485  0.89562  0.59033  Biso   1.000  O
  O3       1.0000 0.40485  0.60438  0.40967  Biso   1.000  O
  O4       1.0000 0.59515  0.39562  0.90967  Biso   1.000  O
  O5       1.0000 0.40485  0.89562  0.90967  Biso   1.000  O
  O6       1.0000 0.59515  0.10438  0.40967  Biso   1.000  O
  O7       1.0000 0.59515  0.39562  0.59033  Biso   1.000  O
  O8       1.0000 0.40485  0.60438  0.09033  Biso   1.000  O
  O9       1.0000 0.21694  0.10399  0.15449  Biso   1.000  O
  O10      1.0000 0.78306  0.89601  0.65449  Biso   1.000  O
  O11      1.0000 0.78306  0.60399  0.34551  Biso   1.000  O
  O12      1.0000 0.21694  0.39601  0.84551  Biso   1.000  O
  O13      1.0000 0.78306  0.89601  0.84551  Biso   1.000  O
  O14      1.0000 0.21694  0.10399  0.34551  Biso   1.000  O
  O15      1.0000 0.21694  0.39601  0.65449  Biso   1.000  O
  O16      1.0000 0.78306  0.60399  0.15449  Biso   1.000  O
  O17      1.0000 0.49098  0.36697  0.25000  Biso   1.000  O
  O18      1.0000 0.50902  0.63303  0.75000  Biso   1.000  O
  O19      1.0000 0.50902  0.86697  0.25000  Biso   1.000  O
  O20      1.0000 0.49098  0.13303  0.75000  Biso   1.000  O
  O21      1.0000 0.85113  0.12780  0.25000  Biso   1.000  O
  O22      1.0000 0.14888  0.87220  0.75000  Biso   1.000  O
  O23      1.0000 0.14888  0.62780  0.25000  Biso   1.000  O
  O24      1.0000 0.85113  0.37220  0.75000  Biso   1.000  O
