data_image0
_cell_length_a       9.47204
_cell_length_b       10.0695
_cell_length_c       12.6155
_cell_angle_alpha    90.0946
_cell_angle_beta     90.1098
_cell_angle_gamma    112.937

_symmetry_space_group_name_H-M    "P 1"
_symmetry_int_tables_number       1

loop_
  _symmetry_equiv_pos_as_xyz
  'x, y, z'

loop_
  _atom_site_label
  _atom_site_occupancy
  _atom_site_fract_x
  _atom_site_fract_y
  _atom_site_fract_z
  _atom_site_thermal_displace_type
  _atom_site_B_iso_or_equiv
  _atom_site_type_symbol
  O1       1.0000 0.19047  0.36037  0.07646  Biso   1.000  O
  O2       1.0000 0.52546  0.52124  0.24269  Biso   1.000  O
  O3       1.0000 0.52411  0.02576  0.49480  Biso   1.000  O
  O4       1.0000 0.52413  0.02790  0.24258  Biso   1.000  O
  O5       1.0000 0.85442  0.69036  0.90962  Biso   1.000  O
  O6       1.0000 0.18899  0.35815  0.57629  Biso   1.000  O
  O7       1.0000 0.19048  0.85404  0.07634  Biso   1.000  O
  O8       1.0000 0.35335  0.18930  0.16196  Biso   1.000  O
  O9       1.0000 0.18931  0.35890  0.32832  Biso   1.000  O
  O10      1.0000 0.68329  0.85313  0.57579  Biso   1.000  O
  O11      1.0000 0.35798  0.19119  0.66186  Biso   1.000  O
  O12      1.0000 0.01483  0.51861  0.24246  Biso   1.000  O
  O13      1.0000 0.52140  0.02415  0.99491  Biso   1.000  O
  O14      1.0000 0.18879  0.35678  0.82863  Biso   1.000  O
  O15      1.0000 0.85685  0.18940  0.90924  Biso   1.000  O
  O16      1.0000 0.85780  0.69323  0.16194  Biso   1.000  O
  O17      1.0000 0.18662  0.85433  0.82875  Biso   1.000  O
  O18      1.0000 0.02289  0.52414  0.49546  Biso   1.000  O
  O19      1.0000 0.85784  0.18741  0.40942  Biso   1.000  O
  O20      1.0000 0.01684  0.52032  0.74274  Biso   1.000  O
  O21      1.0000 0.19104  0.85461  0.32822  Biso   1.000  O
  O22      1.0000 0.85540  0.18614  0.16160  Biso   1.000  O
  O23      1.0000 0.34987  0.18636  0.90907  Biso   1.000  O
  O24      1.0000 0.19124  0.85673  0.57594  Biso   1.000  O
  O25      1.0000 0.52331  0.02471  0.74265  Biso   1.000  O
  O26      1.0000 0.02172  0.52279  0.99526  Biso   1.000  O
  O27      1.0000 0.85389  0.68922  0.66198  Biso   1.000  O
  O28      1.0000 0.34859  0.18616  0.40923  Biso   1.000  O
  O29      1.0000 0.52181  0.52238  0.74333  Biso   1.000  O
  O30      1.0000 0.85860  0.69454  0.40951  Biso   1.000  O
  O31      1.0000 0.68149  0.85246  0.07572  Biso   1.000  O
  O32      1.0000 0.85533  0.18911  0.66137  Biso   1.000  O
  O33      1.0000 0.69000  0.85749  0.82857  Biso   1.000  O
  O34      1.0000 0.52162  0.52152  0.99500  Biso   1.000  O
  O35      1.0000 0.68772  0.85545  0.32848  Biso   1.000  O
  O36      1.0000 0.52139  0.52048  0.49540  Biso   1.000  O
  Ir1      1.0000 0.35467  0.31449  0.78581  Biso   1.000  Ir
  Ir2      1.0000 0.31257  0.98016  0.95210  Biso   1.000  Ir
  Ir3      1.0000 0.06401  0.35713  0.95231  Biso   1.000  Ir
  Ir4      1.0000 0.02106  0.39756  0.61882  Biso   1.000  Ir
  Ir5      1.0000 0.97843  0.68846  0.78603  Biso   1.000  Ir
  Ir6      1.0000 0.06512  0.73196  0.45238  Biso   1.000  Ir
  Ir7      1.0000 0.68845  0.98103  0.45225  Biso   1.000  Ir
  Ir8      1.0000 0.31259  0.35588  0.45247  Biso   1.000  Ir
  Ir9      1.0000 0.97998  0.31315  0.28501  Biso   1.000  Ir
  Ir10     1.0000 0.64572  0.64692  0.61909  Biso   1.000  Ir
  Ir11     1.0000 0.39857  0.02453  0.61853  Biso   1.000  Ir
  Ir12     1.0000 0.68669  0.73007  0.95190  Biso   1.000  Ir
  Ir13     1.0000 0.73172  0.69088  0.28557  Biso   1.000  Ir
  Ir14     1.0000 0.39716  0.39790  0.11933  Biso   1.000  Ir
  Ir15     1.0000 0.64597  0.02254  0.11867  Biso   1.000  Ir
  Ir16     1.0000 0.35435  0.06410  0.28534  Biso   1.000  Ir
  Ir17     1.0000 0.02137  0.64758  0.11918  Biso   1.000  Ir
  Ir18     1.0000 0.73082  0.06486  0.78555  Biso   1.000  Ir
