data_image0
_cell_length_a       9.3324
_cell_length_b       26.9647
_cell_length_c       13.9309
_cell_angle_alpha    90
_cell_angle_beta     101.248
_cell_angle_gamma    90

_symmetry_space_group_name_H-M    "P 1"
_symmetry_int_tables_number       1

loop_
  _symmetry_equiv_pos_as_xyz
  'x, y, z'

loop_
  _atom_site_label
  _atom_site_occupancy
  _atom_site_fract_x
  _atom_site_fract_y
  _atom_site_fract_z
  _atom_site_thermal_displace_type
  _atom_site_B_iso_or_equiv
  _atom_site_type_symbol
  O1       1.0000 0.42318  0.06489  0.90259  Biso   1.000  O
  O2       1.0000 0.57682  0.56489  0.09741  Biso   1.000  O
  O3       1.0000 0.57682  0.93511  0.09741  Biso   1.000  O
  O4       1.0000 0.42318  0.43511  0.90259  Biso   1.000  O
  O5       1.0000 0.49464  0.25000  0.28071  Biso   1.000  O
  O6       1.0000 0.50536  0.75000  0.71929  Biso   1.000  O
  O7       1.0000 0.60006  0.33174  0.13153  Biso   1.000  O
  O8       1.0000 0.39994  0.83174  0.86847  Biso   1.000  O
  O9       1.0000 0.39994  0.66826  0.86847  Biso   1.000  O
  O10      1.0000 0.60006  0.16826  0.13153  Biso   1.000  O
  O11      1.0000 0.15344  0.09576  0.01972  Biso   1.000  O
  O12      1.0000 0.84656  0.59576  0.98028  Biso   1.000  O
  O13      1.0000 0.84656  0.90424  0.98028  Biso   1.000  O
  O14      1.0000 0.15344  0.40424  0.01972  Biso   1.000  O
  O15      1.0000 0.41255  0.03168  0.37028  Biso   1.000  O
  O16      1.0000 0.58745  0.53168  0.62972  Biso   1.000  O
  O17      1.0000 0.58745  0.96832  0.62972  Biso   1.000  O
  O18      1.0000 0.41255  0.46832  0.37028  Biso   1.000  O
  O19      1.0000 0.28852  0.63478  0.06669  Biso   1.000  O
  O20      1.0000 0.71148  0.13478  0.93331  Biso   1.000  O
  O21      1.0000 0.71148  0.36523  0.93331  Biso   1.000  O
  O22      1.0000 0.28852  0.86523  0.06669  Biso   1.000  O
  O23      1.0000 0.02631  0.08328  0.22649  Biso   1.000  O
  O24      1.0000 0.97369  0.58328  0.77351  Biso   1.000  O
  O25      1.0000 0.97369  0.91672  0.77351  Biso   1.000  O
  O26      1.0000 0.02631  0.41672  0.22649  Biso   1.000  O
  O27      1.0000 0.89716  0.97595  0.16183  Biso   1.000  O
  O28      1.0000 0.10284  0.47595  0.83817  Biso   1.000  O
  O29      1.0000 0.10284  0.02405  0.83817  Biso   1.000  O
  O30      1.0000 0.89716  0.52405  0.16183  Biso   1.000  O
  O31      1.0000 0.32510  0.56424  0.24374  Biso   1.000  O
  O32      1.0000 0.67490  0.06424  0.75626  Biso   1.000  O
  O33      1.0000 0.67490  0.43576  0.75626  Biso   1.000  O
  O34      1.0000 0.32510  0.93576  0.24374  Biso   1.000  O
  O35      1.0000 0.27316  0.33553  0.19873  Biso   1.000  O
  O36      1.0000 0.72684  0.83553  0.80127  Biso   1.000  O
  O37      1.0000 0.72684  0.66448  0.80127  Biso   1.000  O
  O38      1.0000 0.27316  0.16448  0.19873  Biso   1.000  O
  O39      1.0000 0.24677  0.96256  0.67304  Biso   1.000  O
  O40      1.0000 0.75323  0.46256  0.32696  Biso   1.000  O
  O41      1.0000 0.75323  0.03744  0.32696  Biso   1.000  O
  O42      1.0000 0.24677  0.53744  0.67304  Biso   1.000  O
  O43      1.0000 0.71140  0.25000  0.98604  Biso   1.000  O
  O44      1.0000 0.28860  0.75000  0.01396  Biso   1.000  O
  O45      1.0000 0.94637  0.17858  0.09789  Biso   1.000  O
  O46      1.0000 0.05363  0.67858  0.90211  Biso   1.000  O
  O47      1.0000 0.05363  0.82142  0.90211  Biso   1.000  O
  O48      1.0000 0.94637  0.32142  0.09789  Biso   1.000  O
  O49      1.0000 0.73476  0.48345  0.96714  Biso   1.000  O
  O50      1.0000 0.26524  0.98345  0.03286  Biso   1.000  O
  O51      1.0000 0.26524  0.51655  0.03286  Biso   1.000  O
  O52      1.0000 0.73476  0.01655  0.96714  Biso   1.000  O
  O53      1.0000 0.55756  0.36199  0.34602  Biso   1.000  O
  O54      1.0000 0.44244  0.86199  0.65398  Biso   1.000  O
  O55      1.0000 0.44244  0.63801  0.65398  Biso   1.000  O
  O56      1.0000 0.55756  0.13801  0.34602  Biso   1.000  O
  O57      1.0000 0.08083  0.98940  0.36262  Biso   1.000  O
  O58      1.0000 0.91917  0.48940  0.63737  Biso   1.000  O
  O59      1.0000 0.91917  0.01060  0.63737  Biso   1.000  O
  O60      1.0000 0.08083  0.51060  0.36262  Biso   1.000  O
  O61      1.0000 0.65578  0.42654  0.53004  Biso   1.000  O
  O62      1.0000 0.34422  0.92654  0.46996  Biso   1.000  O
  O63      1.0000 0.34422  0.57346  0.46996  Biso   1.000  O
  O64      1.0000 0.65578  0.07346  0.53004  Biso   1.000  O
  Ir1      1.0000 0.74286  0.18263  0.03762  Biso   1.000  Ir
  Ir2      1.0000 0.25714  0.68263  0.96238  Biso   1.000  Ir
  Ir3      1.0000 0.25714  0.81737  0.96238  Biso   1.000  Ir
  Ir4      1.0000 0.74286  0.31737  0.03762  Biso   1.000  Ir
  Ir5      1.0000 0.10180  0.36999  0.13554  Biso   1.000  Ir
  Ir6      1.0000 0.89820  0.86999  0.86446  Biso   1.000  Ir
  Ir7      1.0000 0.89820  0.63001  0.86446  Biso   1.000  Ir
  Ir8      1.0000 0.10180  0.13001  0.13554  Biso   1.000  Ir
  Ir9      1.0000 0.59637  0.07014  0.39265  Biso   1.000  Ir
  Ir10     1.0000 0.40363  0.57014  0.60735  Biso   1.000  Ir
  Ir11     1.0000 0.40363  0.92986  0.60735  Biso   1.000  Ir
  Ir12     1.0000 0.59637  0.42986  0.39265  Biso   1.000  Ir
  Ir13     1.0000 0.23793  0.45830  0.94910  Biso   1.000  Ir
  Ir14     1.0000 0.76207  0.95830  0.05090  Biso   1.000  Ir
  Ir15     1.0000 0.76207  0.54170  0.05090  Biso   1.000  Ir
  Ir16     1.0000 0.23793  0.04170  0.94910  Biso   1.000  Ir
  Ir17     1.0000 0.48035  0.31972  0.23920  Biso   1.000  Ir
  Ir18     1.0000 0.51965  0.81972  0.76080  Biso   1.000  Ir
  Ir19     1.0000 0.51965  0.68028  0.76080  Biso   1.000  Ir
  Ir20     1.0000 0.48035  0.18028  0.23920  Biso   1.000  Ir
  Ir21     1.0000 0.93737  0.02184  0.26970  Biso   1.000  Ir
  Ir22     1.0000 0.06263  0.52184  0.73030  Biso   1.000  Ir
  Ir23     1.0000 0.06263  0.97816  0.73030  Biso   1.000  Ir
  Ir24     1.0000 0.93737  0.47816  0.26970  Biso   1.000  Ir
  Ir25     1.0000 0.63602  0.06974  0.89018  Biso   1.000  Ir
  Ir26     1.0000 0.36398  0.56974  0.10981  Biso   1.000  Ir
  Ir27     1.0000 0.36398  0.93026  0.10981  Biso   1.000  Ir
  Ir28     1.0000 0.63602  0.43026  0.89018  Biso   1.000  Ir
  Ir29     1.0000 0.70853  0.47094  0.63836  Biso   1.000  Ir
  Ir30     1.0000 0.29147  0.97094  0.36164  Biso   1.000  Ir
  Ir31     1.0000 0.29147  0.52907  0.36164  Biso   1.000  Ir
  Ir32     1.0000 0.70853  0.02907  0.63836  Biso   1.000  Ir
