data_image0
_cell_length_a       6.59883
_cell_length_b       10.6646
_cell_length_c       10.6717
_cell_angle_alpha    90.0582
_cell_angle_beta     90.1042
_cell_angle_gamma    90.0727

_symmetry_space_group_name_H-M    "P 1"
_symmetry_int_tables_number       1

loop_
  _symmetry_equiv_pos_as_xyz
  'x, y, z'

loop_
  _atom_site_label
  _atom_site_occupancy
  _atom_site_fract_x
  _atom_site_fract_y
  _atom_site_fract_z
  _atom_site_thermal_displace_type
  _atom_site_B_iso_or_equiv
  _atom_site_type_symbol
  O1       1.0000 0.61913  0.66297  0.53984  Biso   1.000  O
  O2       1.0000 0.61848  0.95992  0.66170  Biso   1.000  O
  O3       1.0000 0.61904  0.53918  0.83832  Biso   1.000  O
  O4       1.0000 0.62022  0.83653  0.96042  Biso   1.000  O
  O5       1.0000 0.10984  0.83839  0.54205  Biso   1.000  O
  O6       1.0000 0.11031  0.54144  0.66187  Biso   1.000  O
  O7       1.0000 0.11102  0.95829  0.83785  Biso   1.000  O
  O8       1.0000 0.11143  0.66133  0.95813  Biso   1.000  O
  O9       1.0000 0.99756  0.24960  0.74985  Biso   1.000  O
  O10      1.0000 0.00165  0.75090  0.24994  Biso   1.000  O
  O11      1.0000 0.88809  0.33703  0.04205  Biso   1.000  O
  O12      1.0000 0.89077  0.04078  0.16166  Biso   1.000  O
  O13      1.0000 0.89120  0.45991  0.33855  Biso   1.000  O
  O14      1.0000 0.88742  0.16304  0.45749  Biso   1.000  O
  O15      1.0000 0.49896  0.24952  0.75016  Biso   1.000  O
  O16      1.0000 0.50166  0.75021  0.24950  Biso   1.000  O
  O17      1.0000 0.38252  0.16227  0.04121  Biso   1.000  O
  O18      1.0000 0.38044  0.46079  0.16198  Biso   1.000  O
  O19      1.0000 0.37903  0.03924  0.33816  Biso   1.000  O
  O20      1.0000 0.38176  0.33860  0.45919  Biso   1.000  O
  Ir1      1.0000 0.25050  0.59682  0.40919  Biso   1.000  Ir
  Ir2      1.0000 0.24827  0.09199  0.59509  Biso   1.000  Ir
  Ir3      1.0000 0.24852  0.40768  0.90465  Biso   1.000  Ir
  Ir4      1.0000 0.25061  0.90429  0.09045  Biso   1.000  Ir
  Ir5      1.0000 0.85590  0.74962  0.75014  Biso   1.000  Ir
  Ir6      1.0000 0.74981  0.09404  0.90878  Biso   1.000  Ir
  Ir7      1.0000 0.75247  0.59038  0.09614  Biso   1.000  Ir
  Ir8      1.0000 0.75057  0.90956  0.40420  Biso   1.000  Ir
  Ir9      1.0000 0.74931  0.40526  0.59140  Biso   1.000  Ir
  Ir10     1.0000 0.14349  0.25042  0.25003  Biso   1.000  Ir
