data_image0
_cell_length_a       15.8674
_cell_length_b       15.8674
_cell_length_c       3.62201
_cell_angle_alpha    90
_cell_angle_beta     90
_cell_angle_gamma    120

_symmetry_space_group_name_H-M    "P 1"
_symmetry_int_tables_number       1

loop_
  _symmetry_equiv_pos_as_xyz
  'x, y, z'

loop_
  _atom_site_label
  _atom_site_occupancy
  _atom_site_fract_x
  _atom_site_fract_y
  _atom_site_fract_z
  _atom_site_thermal_displace_type
  _atom_site_B_iso_or_equiv
  _atom_site_type_symbol
  O1       1.0000 0.75336  0.24663  0.50000  Biso   1.000  O
  O2       1.0000 0.75336  0.50673  0.50000  Biso   1.000  O
  O3       1.0000 0.49327  0.24663  0.50000  Biso   1.000  O
  O4       1.0000 0.24663  0.75336  0.50000  Biso   1.000  O
  O5       1.0000 0.24663  0.49327  0.50000  Biso   1.000  O
  O6       1.0000 0.50673  0.75336  0.50000  Biso   1.000  O
  O7       1.0000 0.38480  0.00000  0.00000  Biso   1.000  O
  O8       1.0000 0.00000  0.38480  0.00000  Biso   1.000  O
  O9       1.0000 0.61520  0.61520  0.00000  Biso   1.000  O
  O10      1.0000 0.61520  0.00000  0.00000  Biso   1.000  O
  O11      1.0000 0.00000  0.61520  0.00000  Biso   1.000  O
  O12      1.0000 0.38480  0.38480  0.00000  Biso   1.000  O
  O13      1.0000 0.82316  0.17684  0.00000  Biso   1.000  O
  O14      1.0000 0.82316  0.64632  0.00000  Biso   1.000  O
  O15      1.0000 0.35368  0.17684  0.00000  Biso   1.000  O
  O16      1.0000 0.17684  0.82316  0.00000  Biso   1.000  O
  O17      1.0000 0.17684  0.35368  0.00000  Biso   1.000  O
  O18      1.0000 0.64632  0.82316  0.00000  Biso   1.000  O
  O19      1.0000 0.59030  0.40970  0.00000  Biso   1.000  O
  O20      1.0000 0.59030  0.18060  0.00000  Biso   1.000  O
  O21      1.0000 0.81940  0.40970  0.00000  Biso   1.000  O
  O22      1.0000 0.40970  0.59030  0.00000  Biso   1.000  O
  O23      1.0000 0.40970  0.81940  0.00000  Biso   1.000  O
  O24      1.0000 0.18060  0.59030  0.00000  Biso   1.000  O
  Ir1      1.0000 0.68735  0.14117  0.84769  Biso   1.000  Ir
  Ir2      1.0000 0.85883  0.54618  0.84769  Biso   1.000  Ir
  Ir3      1.0000 0.45382  0.31265  0.84769  Biso   1.000  Ir
  Ir4      1.0000 0.31265  0.85883  0.84769  Biso   1.000  Ir
  Ir5      1.0000 0.14117  0.45382  0.84769  Biso   1.000  Ir
  Ir6      1.0000 0.54618  0.68735  0.84769  Biso   1.000  Ir
  Ir7      1.0000 0.14118  0.68735  0.15231  Biso   1.000  Ir
  Ir8      1.0000 0.54618  0.85883  0.15231  Biso   1.000  Ir
  Ir9      1.0000 0.31265  0.45382  0.15231  Biso   1.000  Ir
  Ir10     1.0000 0.85883  0.31265  0.15231  Biso   1.000  Ir
  Ir11     1.0000 0.45382  0.14117  0.15231  Biso   1.000  Ir
  Ir12     1.0000 0.68735  0.54618  0.15231  Biso   1.000  Ir
