data_image0
_cell_length_a       4.84032
_cell_length_b       8.49354
_cell_length_c       11.3596
_cell_angle_alpha    102.379
_cell_angle_beta     92.1764
_cell_angle_gamma    106.329

_symmetry_space_group_name_H-M    "P 1"
_symmetry_int_tables_number       1

loop_
  _symmetry_equiv_pos_as_xyz
  'x, y, z'

loop_
  _atom_site_label
  _atom_site_occupancy
  _atom_site_fract_x
  _atom_site_fract_y
  _atom_site_fract_z
  _atom_site_thermal_displace_type
  _atom_site_B_iso_or_equiv
  _atom_site_type_symbol
  O1       1.0000 0.99723  0.99969  0.99816  Biso   1.000  O
  O2       1.0000 0.21166  0.20488  0.80906  Biso   1.000  O
  O3       1.0000 0.41426  0.40005  0.60956  Biso   1.000  O
  O4       1.0000 0.60147  0.09802  0.39973  Biso   1.000  O
  O5       1.0000 0.60496  0.60126  0.40114  Biso   1.000  O
  O6       1.0000 0.82160  0.30232  0.21400  Biso   1.000  O
  O7       1.0000 0.78282  0.79739  0.18716  Biso   1.000  O
  O8       1.0000 0.19081  0.69976  0.79191  Biso   1.000  O
  O9       1.0000 0.00437  0.49781  0.00227  Biso   1.000  O
  O10      1.0000 0.38940  0.89966  0.58964  Biso   1.000  O
  Ir1      1.0000 0.14191  0.77347  0.09326  Biso   1.000  Ir
  Ir2      1.0000 0.46271  0.32755  0.30804  Biso   1.000  Ir
  Ir3      1.0000 0.85194  0.23035  0.90275  Biso   1.000  Ir
  Ir4      1.0000 0.74663  0.87438  0.49446  Biso   1.000  Ir
  Ir5      1.0000 0.05872  0.42029  0.70572  Biso   1.000  Ir
