data_image0
_cell_length_a       12.1837
_cell_length_b       12.1837
_cell_length_c       41.7256
_cell_angle_alpha    90
_cell_angle_beta     90
_cell_angle_gamma    90

_symmetry_space_group_name_H-M    "P 1"
_symmetry_int_tables_number       1

loop_
  _symmetry_equiv_pos_as_xyz
  'x, y, z'

loop_
  _atom_site_label
  _atom_site_occupancy
  _atom_site_fract_x
  _atom_site_fract_y
  _atom_site_fract_z
  _atom_site_thermal_displace_type
  _atom_site_B_iso_or_equiv
  _atom_site_type_symbol
  O1       1.0000 0.25602  0.56974  0.17107  Biso   1.000  O
  O2       1.0000 0.74398  0.43025  0.17107  Biso   1.000  O
  O3       1.0000 0.93025  0.75602  0.67107  Biso   1.000  O
  O4       1.0000 0.06974  0.24398  0.67107  Biso   1.000  O
  O5       1.0000 0.24398  0.06974  0.82893  Biso   1.000  O
  O6       1.0000 0.75602  0.93025  0.82893  Biso   1.000  O
  O7       1.0000 0.56974  0.25602  0.32893  Biso   1.000  O
  O8       1.0000 0.43025  0.74398  0.32893  Biso   1.000  O
  O9       1.0000 0.24398  0.93025  0.32893  Biso   1.000  O
  O10      1.0000 0.75602  0.06974  0.32893  Biso   1.000  O
  O11      1.0000 0.56974  0.74398  0.82893  Biso   1.000  O
  O12      1.0000 0.43025  0.25602  0.82893  Biso   1.000  O
  O13      1.0000 0.25602  0.43025  0.67107  Biso   1.000  O
  O14      1.0000 0.74398  0.56974  0.67107  Biso   1.000  O
  O15      1.0000 0.93025  0.24398  0.17107  Biso   1.000  O
  O16      1.0000 0.06974  0.75602  0.17107  Biso   1.000  O
  O17      1.0000 0.28493  0.40250  0.11244  Biso   1.000  O
  O18      1.0000 0.71507  0.59750  0.11244  Biso   1.000  O
  O19      1.0000 0.09750  0.78493  0.61244  Biso   1.000  O
  O20      1.0000 0.90250  0.21507  0.61244  Biso   1.000  O
  O21      1.0000 0.21507  0.90250  0.88756  Biso   1.000  O
  O22      1.0000 0.78493  0.09750  0.88756  Biso   1.000  O
  O23      1.0000 0.40250  0.28493  0.38756  Biso   1.000  O
  O24      1.0000 0.59750  0.71507  0.38756  Biso   1.000  O
  O25      1.0000 0.21507  0.09750  0.38756  Biso   1.000  O
  O26      1.0000 0.78493  0.90250  0.38756  Biso   1.000  O
  O27      1.0000 0.40250  0.71507  0.88756  Biso   1.000  O
  O28      1.0000 0.59750  0.28493  0.88756  Biso   1.000  O
  O29      1.0000 0.28493  0.59750  0.61244  Biso   1.000  O
  O30      1.0000 0.71507  0.40250  0.61244  Biso   1.000  O
  O31      1.0000 0.09750  0.21507  0.11244  Biso   1.000  O
  O32      1.0000 0.90250  0.78493  0.11244  Biso   1.000  O
  O33      1.0000 0.35624  0.32957  0.18387  Biso   1.000  O
  O34      1.0000 0.64376  0.67043  0.18387  Biso   1.000  O
  O35      1.0000 0.17043  0.85624  0.68387  Biso   1.000  O
  O36      1.0000 0.82957  0.14376  0.68387  Biso   1.000  O
  O37      1.0000 0.14376  0.82957  0.81613  Biso   1.000  O
  O38      1.0000 0.85624  0.17043  0.81613  Biso   1.000  O
  O39      1.0000 0.32957  0.35624  0.31613  Biso   1.000  O
  O40      1.0000 0.67043  0.64376  0.31613  Biso   1.000  O
  O41      1.0000 0.14376  0.17043  0.31613  Biso   1.000  O
  O42      1.0000 0.85624  0.82957  0.31613  Biso   1.000  O
  O43      1.0000 0.32957  0.64376  0.81613  Biso   1.000  O
  O44      1.0000 0.67043  0.35624  0.81613  Biso   1.000  O
  O45      1.0000 0.35624  0.67043  0.68387  Biso   1.000  O
  O46      1.0000 0.64376  0.32957  0.68387  Biso   1.000  O
  O47      1.0000 0.17043  0.14376  0.18387  Biso   1.000  O
  O48      1.0000 0.82957  0.85624  0.18387  Biso   1.000  O
  O49      1.0000 0.00000  0.00000  0.64532  Biso   1.000  O
  O50      1.0000 0.50000  0.50000  0.14532  Biso   1.000  O
  O51      1.0000 0.50000  0.50000  0.35468  Biso   1.000  O
  O52      1.0000 0.00000  0.00000  0.85468  Biso   1.000  O
  O53      1.0000 0.50000  0.50000  0.85468  Biso   1.000  O
  O54      1.0000 0.00000  0.00000  0.35468  Biso   1.000  O
  O55      1.0000 0.00000  0.00000  0.14532  Biso   1.000  O
  O56      1.0000 0.50000  0.50000  0.64532  Biso   1.000  O
  O57      1.0000 0.40909  0.90909  0.71184  Biso   1.000  O
  O58      1.0000 0.59091  0.09091  0.71184  Biso   1.000  O
  O59      1.0000 0.59091  0.90909  0.21184  Biso   1.000  O
  O60      1.0000 0.40909  0.09091  0.21184  Biso   1.000  O
  O61      1.0000 0.09091  0.40909  0.28816  Biso   1.000  O
  O62      1.0000 0.90909  0.59091  0.28816  Biso   1.000  O
  O63      1.0000 0.90909  0.40909  0.78816  Biso   1.000  O
  O64      1.0000 0.09091  0.59091  0.78816  Biso   1.000  O
  O65      1.0000 0.25000  0.25000  0.25000  Biso   1.000  O
  O66      1.0000 0.75000  0.75000  0.25000  Biso   1.000  O
  O67      1.0000 0.25000  0.75000  0.75000  Biso   1.000  O
  O68      1.0000 0.75000  0.25000  0.75000  Biso   1.000  O
  O69      1.0000 0.25304  0.75304  0.49391  Biso   1.000  O
  O70      1.0000 0.74696  0.24696  0.49391  Biso   1.000  O
  O71      1.0000 0.74696  0.75304  0.99391  Biso   1.000  O
  O72      1.0000 0.25304  0.24696  0.99391  Biso   1.000  O
  O73      1.0000 0.24696  0.25304  0.50609  Biso   1.000  O
  O74      1.0000 0.75304  0.74696  0.50609  Biso   1.000  O
  O75      1.0000 0.75304  0.25304  0.00609  Biso   1.000  O
  O76      1.0000 0.24696  0.74696  0.00609  Biso   1.000  O
  O77      1.0000 0.31323  0.00035  0.51416  Biso   1.000  O
  O78      1.0000 0.68677  0.99965  0.51416  Biso   1.000  O
  O79      1.0000 0.49965  0.81323  0.01416  Biso   1.000  O
  O80      1.0000 0.50035  0.18677  0.01416  Biso   1.000  O
  O81      1.0000 0.18677  0.50035  0.48584  Biso   1.000  O
  O82      1.0000 0.81323  0.49965  0.48584  Biso   1.000  O
  O83      1.0000 0.00035  0.31323  0.98584  Biso   1.000  O
  O84      1.0000 0.99965  0.68677  0.98584  Biso   1.000  O
  O85      1.0000 0.18677  0.49965  0.98584  Biso   1.000  O
  O86      1.0000 0.81323  0.50035  0.98584  Biso   1.000  O
  O87      1.0000 0.00035  0.68677  0.48584  Biso   1.000  O
  O88      1.0000 0.99965  0.31323  0.48584  Biso   1.000  O
  O89      1.0000 0.31323  0.99965  0.01416  Biso   1.000  O
  O90      1.0000 0.68677  0.00035  0.01416  Biso   1.000  O
  O91      1.0000 0.49965  0.18677  0.51416  Biso   1.000  O
  O92      1.0000 0.50035  0.81323  0.51416  Biso   1.000  O
  O93      1.0000 0.31030  0.81030  0.56732  Biso   1.000  O
  O94      1.0000 0.68970  0.18970  0.56732  Biso   1.000  O
  O95      1.0000 0.68970  0.81030  0.06732  Biso   1.000  O
  O96      1.0000 0.31030  0.18970  0.06732  Biso   1.000  O
  O97      1.0000 0.18970  0.31030  0.43268  Biso   1.000  O
  O98      1.0000 0.81030  0.68970  0.43268  Biso   1.000  O
  O99      1.0000 0.81030  0.31030  0.93268  Biso   1.000  O
  O100     1.0000 0.18970  0.68970  0.93268  Biso   1.000  O
  O101     1.0000 0.37165  0.87164  0.94871  Biso   1.000  O
  O102     1.0000 0.62835  0.12835  0.94871  Biso   1.000  O
  O103     1.0000 0.62835  0.87164  0.44871  Biso   1.000  O
  O104     1.0000 0.37165  0.12835  0.44871  Biso   1.000  O
  O105     1.0000 0.12835  0.37165  0.05129  Biso   1.000  O
  O106     1.0000 0.87164  0.62835  0.05129  Biso   1.000  O
  O107     1.0000 0.87164  0.37165  0.55129  Biso   1.000  O
  O108     1.0000 0.12835  0.62835  0.55129  Biso   1.000  O
  O109     1.0000 0.40673  0.90673  0.26789  Biso   1.000  O
  O110     1.0000 0.59327  0.09327  0.26789  Biso   1.000  O
  O111     1.0000 0.59327  0.90673  0.76789  Biso   1.000  O
  O112     1.0000 0.40673  0.09327  0.76789  Biso   1.000  O
  O113     1.0000 0.09327  0.40673  0.73211  Biso   1.000  O
  O114     1.0000 0.90673  0.59327  0.73211  Biso   1.000  O
  O115     1.0000 0.90673  0.40673  0.23211  Biso   1.000  O
  O116     1.0000 0.09327  0.59327  0.23211  Biso   1.000  O
  O117     1.0000 0.00000  0.50000  0.66560  Biso   1.000  O
  O118     1.0000 0.00000  0.50000  0.16560  Biso   1.000  O
  O119     1.0000 0.50000  0.00000  0.33439  Biso   1.000  O
  O120     1.0000 0.50000  0.00000  0.83439  Biso   1.000  O
  Ir1      1.0000 0.34932  0.45156  0.15323  Biso   1.000  Ir
  Ir2      1.0000 0.65068  0.54844  0.15323  Biso   1.000  Ir
  Ir3      1.0000 0.04843  0.84932  0.65323  Biso   1.000  Ir
  Ir4      1.0000 0.95156  0.15068  0.65323  Biso   1.000  Ir
  Ir5      1.0000 0.15068  0.95156  0.84677  Biso   1.000  Ir
  Ir6      1.0000 0.84932  0.04843  0.84677  Biso   1.000  Ir
  Ir7      1.0000 0.45156  0.34932  0.34677  Biso   1.000  Ir
  Ir8      1.0000 0.54844  0.65068  0.34677  Biso   1.000  Ir
  Ir9      1.0000 0.15068  0.04843  0.34677  Biso   1.000  Ir
  Ir10     1.0000 0.84932  0.95156  0.34677  Biso   1.000  Ir
  Ir11     1.0000 0.45156  0.65068  0.84677  Biso   1.000  Ir
  Ir12     1.0000 0.54844  0.34932  0.84677  Biso   1.000  Ir
  Ir13     1.0000 0.34932  0.54844  0.65323  Biso   1.000  Ir
  Ir14     1.0000 0.65068  0.45156  0.65323  Biso   1.000  Ir
  Ir15     1.0000 0.04843  0.15068  0.15323  Biso   1.000  Ir
  Ir16     1.0000 0.95156  0.84932  0.15323  Biso   1.000  Ir
  Ir17     1.0000 0.29587  0.79587  0.70724  Biso   1.000  Ir
  Ir18     1.0000 0.70413  0.20413  0.70724  Biso   1.000  Ir
  Ir19     1.0000 0.70413  0.79587  0.20724  Biso   1.000  Ir
  Ir20     1.0000 0.29587  0.20413  0.20724  Biso   1.000  Ir
  Ir21     1.0000 0.20413  0.29587  0.29276  Biso   1.000  Ir
  Ir22     1.0000 0.79587  0.70413  0.29276  Biso   1.000  Ir
  Ir23     1.0000 0.79587  0.29587  0.79276  Biso   1.000  Ir
  Ir24     1.0000 0.20413  0.70413  0.79276  Biso   1.000  Ir
  Ir25     1.0000 0.34512  0.84511  0.52218  Biso   1.000  Ir
  Ir26     1.0000 0.65489  0.15488  0.52218  Biso   1.000  Ir
  Ir27     1.0000 0.65489  0.84511  0.02218  Biso   1.000  Ir
  Ir28     1.0000 0.34512  0.15488  0.02218  Biso   1.000  Ir
  Ir29     1.0000 0.15488  0.34512  0.47782  Biso   1.000  Ir
  Ir30     1.0000 0.84511  0.65489  0.47782  Biso   1.000  Ir
  Ir31     1.0000 0.84511  0.34512  0.97782  Biso   1.000  Ir
  Ir32     1.0000 0.15488  0.65489  0.97782  Biso   1.000  Ir
  Ir33     1.0000 0.35863  0.85863  0.99589  Biso   1.000  Ir
  Ir34     1.0000 0.64137  0.14137  0.99589  Biso   1.000  Ir
  Ir35     1.0000 0.64137  0.85863  0.49589  Biso   1.000  Ir
  Ir36     1.0000 0.35863  0.14137  0.49589  Biso   1.000  Ir
  Ir37     1.0000 0.14137  0.35863  0.00411  Biso   1.000  Ir
  Ir38     1.0000 0.85863  0.64137  0.00411  Biso   1.000  Ir
  Ir39     1.0000 0.85863  0.35863  0.50411  Biso   1.000  Ir
  Ir40     1.0000 0.14137  0.64137  0.50411  Biso   1.000  Ir
  Ir41     1.0000 0.20513  0.70513  0.58650  Biso   1.000  Ir
  Ir42     1.0000 0.79487  0.29487  0.58650  Biso   1.000  Ir
  Ir43     1.0000 0.79487  0.70513  0.08650  Biso   1.000  Ir
  Ir44     1.0000 0.20513  0.29487  0.08650  Biso   1.000  Ir
  Ir45     1.0000 0.29487  0.20513  0.41350  Biso   1.000  Ir
  Ir46     1.0000 0.70513  0.79487  0.41350  Biso   1.000  Ir
  Ir47     1.0000 0.70513  0.20513  0.91350  Biso   1.000  Ir
  Ir48     1.0000 0.29487  0.79487  0.91350  Biso   1.000  Ir
  Ir49     1.0000 0.39408  0.89408  0.31518  Biso   1.000  Ir
  Ir50     1.0000 0.60592  0.10592  0.31518  Biso   1.000  Ir
  Ir51     1.0000 0.60592  0.89408  0.81518  Biso   1.000  Ir
  Ir52     1.0000 0.39408  0.10592  0.81518  Biso   1.000  Ir
  Ir53     1.0000 0.10592  0.39408  0.68482  Biso   1.000  Ir
  Ir54     1.0000 0.89408  0.60592  0.68482  Biso   1.000  Ir
  Ir55     1.0000 0.89408  0.39408  0.18482  Biso   1.000  Ir
  Ir56     1.0000 0.10592  0.60592  0.18482  Biso   1.000  Ir
  Ir57     1.0000 0.00000  0.50000  0.26021  Biso   1.000  Ir
  Ir58     1.0000 0.00000  0.50000  0.76021  Biso   1.000  Ir
  Ir59     1.0000 0.50000  0.00000  0.73979  Biso   1.000  Ir
  Ir60     1.0000 0.50000  0.00000  0.23979  Biso   1.000  Ir
