data_image0
_cell_length_a       8.83391
_cell_length_b       11.318
_cell_length_c       9.18426
_cell_angle_alpha    90
_cell_angle_beta     96.7768
_cell_angle_gamma    90

_symmetry_space_group_name_H-M    "P 1"
_symmetry_int_tables_number       1

loop_
  _symmetry_equiv_pos_as_xyz
  'x, y, z'

loop_
  _atom_site_label
  _atom_site_occupancy
  _atom_site_fract_x
  _atom_site_fract_y
  _atom_site_fract_z
  _atom_site_thermal_displace_type
  _atom_site_B_iso_or_equiv
  _atom_site_type_symbol
  O1       1.0000 0.94670  0.82831  0.61764  Biso   1.000  O
  O2       1.0000 0.05330  0.32831  0.88236  Biso   1.000  O
  O3       1.0000 0.05330  0.17169  0.38236  Biso   1.000  O
  O4       1.0000 0.94670  0.67169  0.11764  Biso   1.000  O
  O5       1.0000 0.45218  0.00677  0.62296  Biso   1.000  O
  O6       1.0000 0.54782  0.50677  0.87704  Biso   1.000  O
  O7       1.0000 0.54782  0.99323  0.37704  Biso   1.000  O
  O8       1.0000 0.45218  0.49323  0.12297  Biso   1.000  O
  O9       1.0000 0.46396  0.66300  0.62371  Biso   1.000  O
  O10      1.0000 0.53604  0.16300  0.87629  Biso   1.000  O
  O11      1.0000 0.53604  0.33700  0.37629  Biso   1.000  O
  O12      1.0000 0.46396  0.83700  0.12371  Biso   1.000  O
  O13      1.0000 0.96162  0.17211  0.62792  Biso   1.000  O
  O14      1.0000 0.03838  0.67211  0.87208  Biso   1.000  O
  O15      1.0000 0.03838  0.82789  0.37208  Biso   1.000  O
  O16      1.0000 0.96162  0.32789  0.12792  Biso   1.000  O
  O17      1.0000 0.97007  0.49824  0.62827  Biso   1.000  O
  O18      1.0000 0.02993  0.99824  0.87173  Biso   1.000  O
  O19      1.0000 0.02993  0.50176  0.37173  Biso   1.000  O
  O20      1.0000 0.97007  0.00176  0.12827  Biso   1.000  O
  O21      1.0000 0.47485  0.33753  0.62991  Biso   1.000  O
  O22      1.0000 0.52515  0.83753  0.87009  Biso   1.000  O
  O23      1.0000 0.52515  0.66247  0.37009  Biso   1.000  O
  O24      1.0000 0.47485  0.16247  0.12991  Biso   1.000  O
  Ir1      1.0000 0.23527  0.17677  0.56968  Biso   1.000  Ir
  Ir2      1.0000 0.76473  0.67677  0.93032  Biso   1.000  Ir
  Ir3      1.0000 0.76473  0.82323  0.43032  Biso   1.000  Ir
  Ir4      1.0000 0.23527  0.32323  0.06968  Biso   1.000  Ir
  Ir5      1.0000 0.85386  0.66373  0.68529  Biso   1.000  Ir
  Ir6      1.0000 0.14614  0.16373  0.81471  Biso   1.000  Ir
  Ir7      1.0000 0.14614  0.33626  0.31471  Biso   1.000  Ir
  Ir8      1.0000 0.85386  0.83627  0.18529  Biso   1.000  Ir
  Ir9      1.0000 0.35991  0.50074  0.69058  Biso   1.000  Ir
  Ir10     1.0000 0.64009  0.00074  0.80942  Biso   1.000  Ir
  Ir11     1.0000 0.64009  0.49926  0.30942  Biso   1.000  Ir
  Ir12     1.0000 0.35991  0.99926  0.19058  Biso   1.000  Ir
