data_image0
_cell_length_a       7.54081
_cell_length_b       6.17674
_cell_length_c       6.21843
_cell_angle_alpha    90
_cell_angle_beta     90
_cell_angle_gamma    90

_symmetry_space_group_name_H-M    "P 1"
_symmetry_int_tables_number       1

loop_
  _symmetry_equiv_pos_as_xyz
  'x, y, z'

loop_
  _atom_site_label
  _atom_site_occupancy
  _atom_site_fract_x
  _atom_site_fract_y
  _atom_site_fract_z
  _atom_site_thermal_displace_type
  _atom_site_B_iso_or_equiv
  _atom_site_type_symbol
  O1       1.0000 0.00000  0.50000  0.51844  Biso   1.000  O
  O2       1.0000 0.50000  0.50000  0.51844  Biso   1.000  O
  O3       1.0000 0.75000  0.48607  0.98892  Biso   1.000  O
  O4       1.0000 0.25000  0.51393  0.98892  Biso   1.000  O
  O5       1.0000 0.00000  0.00000  0.01844  Biso   1.000  O
  O6       1.0000 0.50000  0.00000  0.01844  Biso   1.000  O
  O7       1.0000 0.75000  0.98607  0.48892  Biso   1.000  O
  O8       1.0000 0.25000  0.01393  0.48892  Biso   1.000  O
  Ir1      1.0000 0.75000  0.34086  0.34064  Biso   1.000  Ir
  Ir2      1.0000 0.25000  0.65914  0.34064  Biso   1.000  Ir
  Ir3      1.0000 0.75000  0.84086  0.84064  Biso   1.000  Ir
  Ir4      1.0000 0.25000  0.15915  0.84064  Biso   1.000  Ir
