data_image0
_cell_length_a       21.6183
_cell_length_b       21.6183
_cell_length_c       12.8961
_cell_angle_alpha    90
_cell_angle_beta     90
_cell_angle_gamma    120

_symmetry_space_group_name_H-M    "P 1"
_symmetry_int_tables_number       1

loop_
  _symmetry_equiv_pos_as_xyz
  'x, y, z'

loop_
  _atom_site_label
  _atom_site_occupancy
  _atom_site_fract_x
  _atom_site_fract_y
  _atom_site_fract_z
  _atom_site_thermal_displace_type
  _atom_site_B_iso_or_equiv
  _atom_site_type_symbol
  O1       1.0000 0.08771  0.17543  0.00000  Biso   1.000  O
  O2       1.0000 0.82457  0.91229  0.00000  Biso   1.000  O
  O3       1.0000 0.08771  0.91229  0.00000  Biso   1.000  O
  O4       1.0000 0.91229  0.82457  0.00000  Biso   1.000  O
  O5       1.0000 0.17543  0.08771  0.00000  Biso   1.000  O
  O6       1.0000 0.91229  0.08771  0.00000  Biso   1.000  O
  O7       1.0000 0.91254  0.82509  0.64721  Biso   1.000  O
  O8       1.0000 0.17491  0.08746  0.64721  Biso   1.000  O
  O9       1.0000 0.91254  0.08746  0.64721  Biso   1.000  O
  O10      1.0000 0.08746  0.17491  0.64721  Biso   1.000  O
  O11      1.0000 0.82509  0.91254  0.64721  Biso   1.000  O
  O12      1.0000 0.08746  0.91254  0.64721  Biso   1.000  O
  O13      1.0000 0.82509  0.91254  0.35279  Biso   1.000  O
  O14      1.0000 0.08746  0.17491  0.35279  Biso   1.000  O
  O15      1.0000 0.08746  0.91254  0.35279  Biso   1.000  O
  O16      1.0000 0.17491  0.08746  0.35279  Biso   1.000  O
  O17      1.0000 0.91254  0.82509  0.35279  Biso   1.000  O
  O18      1.0000 0.91254  0.08746  0.35279  Biso   1.000  O
  O19      1.0000 0.57039  0.14078  0.15690  Biso   1.000  O
  O20      1.0000 0.85922  0.42961  0.15690  Biso   1.000  O
  O21      1.0000 0.57039  0.42961  0.15690  Biso   1.000  O
  O22      1.0000 0.42961  0.85922  0.15690  Biso   1.000  O
  O23      1.0000 0.14078  0.57039  0.15690  Biso   1.000  O
  O24      1.0000 0.42961  0.57039  0.15690  Biso   1.000  O
  O25      1.0000 0.14078  0.57039  0.84310  Biso   1.000  O
  O26      1.0000 0.42961  0.85922  0.84310  Biso   1.000  O
  O27      1.0000 0.42961  0.57039  0.84310  Biso   1.000  O
  O28      1.0000 0.85922  0.42961  0.84310  Biso   1.000  O
  O29      1.0000 0.57039  0.14078  0.84310  Biso   1.000  O
  O30      1.0000 0.57039  0.42961  0.84310  Biso   1.000  O
  O31      1.0000 0.66354  0.12657  0.00000  Biso   1.000  O
  O32      1.0000 0.87342  0.53697  0.00000  Biso   1.000  O
  O33      1.0000 0.46303  0.33646  0.00000  Biso   1.000  O
  O34      1.0000 0.33646  0.87343  0.00000  Biso   1.000  O
  O35      1.0000 0.12657  0.46303  0.00000  Biso   1.000  O
  O36      1.0000 0.53697  0.66354  0.00000  Biso   1.000  O
  O37      1.0000 0.12658  0.66354  0.00000  Biso   1.000  O
  O38      1.0000 0.53697  0.87343  0.00000  Biso   1.000  O
  O39      1.0000 0.33646  0.46303  0.00000  Biso   1.000  O
  O40      1.0000 0.87342  0.33646  0.00000  Biso   1.000  O
  O41      1.0000 0.46303  0.12657  0.00000  Biso   1.000  O
  O42      1.0000 0.66354  0.53697  0.00000  Biso   1.000  O
  O43      1.0000 0.74240  0.48480  0.86048  Biso   1.000  O
  O44      1.0000 0.51520  0.25760  0.86048  Biso   1.000  O
  O45      1.0000 0.74240  0.25760  0.86048  Biso   1.000  O
  O46      1.0000 0.25760  0.51520  0.86048  Biso   1.000  O
  O47      1.0000 0.48480  0.74240  0.86048  Biso   1.000  O
  O48      1.0000 0.25760  0.74240  0.86048  Biso   1.000  O
  O49      1.0000 0.48480  0.74240  0.13952  Biso   1.000  O
  O50      1.0000 0.25760  0.51520  0.13952  Biso   1.000  O
  O51      1.0000 0.25760  0.74240  0.13952  Biso   1.000  O
  O52      1.0000 0.51520  0.25760  0.13952  Biso   1.000  O
  O53      1.0000 0.74240  0.48480  0.13952  Biso   1.000  O
  O54      1.0000 0.74240  0.25760  0.13952  Biso   1.000  O
  O55      1.0000 0.68864  0.08922  0.19093  Biso   1.000  O
  O56      1.0000 0.91078  0.59941  0.19093  Biso   1.000  O
  O57      1.0000 0.40059  0.31136  0.19093  Biso   1.000  O
  O58      1.0000 0.31136  0.91078  0.19093  Biso   1.000  O
  O59      1.0000 0.08922  0.40059  0.19093  Biso   1.000  O
  O60      1.0000 0.59941  0.68864  0.19093  Biso   1.000  O
  O61      1.0000 0.08923  0.68864  0.80907  Biso   1.000  O
  O62      1.0000 0.59941  0.91078  0.80907  Biso   1.000  O
  O63      1.0000 0.31136  0.40059  0.80907  Biso   1.000  O
  O64      1.0000 0.91078  0.31136  0.80907  Biso   1.000  O
  O65      1.0000 0.40059  0.08922  0.80907  Biso   1.000  O
  O66      1.0000 0.68864  0.59941  0.80907  Biso   1.000  O
  O67      1.0000 0.31136  0.91078  0.80907  Biso   1.000  O
  O68      1.0000 0.08922  0.40059  0.80907  Biso   1.000  O
  O69      1.0000 0.59941  0.68864  0.80907  Biso   1.000  O
  O70      1.0000 0.68864  0.08922  0.80907  Biso   1.000  O
  O71      1.0000 0.91078  0.59941  0.80907  Biso   1.000  O
  O72      1.0000 0.40059  0.31136  0.80907  Biso   1.000  O
  O73      1.0000 0.91078  0.31136  0.19093  Biso   1.000  O
  O74      1.0000 0.40059  0.08922  0.19093  Biso   1.000  O
  O75      1.0000 0.68864  0.59941  0.19093  Biso   1.000  O
  O76      1.0000 0.08923  0.68864  0.19093  Biso   1.000  O
  O77      1.0000 0.59941  0.91078  0.19093  Biso   1.000  O
  O78      1.0000 0.31136  0.40059  0.19093  Biso   1.000  O
  O79      1.0000 0.73975  0.00000  0.30845  Biso   1.000  O
  O80      1.0000 0.00000  0.73975  0.30845  Biso   1.000  O
  O81      1.0000 0.26025  0.26025  0.30845  Biso   1.000  O
  O82      1.0000 0.26025  0.00000  0.30845  Biso   1.000  O
  O83      1.0000 0.00000  0.26025  0.30845  Biso   1.000  O
  O84      1.0000 0.73975  0.73975  0.30845  Biso   1.000  O
  O85      1.0000 0.00000  0.73975  0.69155  Biso   1.000  O
  O86      1.0000 0.73975  0.00000  0.69155  Biso   1.000  O
  O87      1.0000 0.26025  0.26025  0.69155  Biso   1.000  O
  O88      1.0000 0.00000  0.26025  0.69155  Biso   1.000  O
  O89      1.0000 0.26025  0.00000  0.69155  Biso   1.000  O
  O90      1.0000 0.73975  0.73975  0.69155  Biso   1.000  O
  O91      1.0000 0.76053  0.00000  0.10350  Biso   1.000  O
  O92      1.0000 0.00000  0.76053  0.10350  Biso   1.000  O
  O93      1.0000 0.23947  0.23947  0.10350  Biso   1.000  O
  O94      1.0000 0.23947  0.00000  0.10350  Biso   1.000  O
  O95      1.0000 0.00000  0.23947  0.10350  Biso   1.000  O
  O96      1.0000 0.76053  0.76053  0.10350  Biso   1.000  O
  O97      1.0000 0.00000  0.76053  0.89650  Biso   1.000  O
  O98      1.0000 0.76053  0.00000  0.89650  Biso   1.000  O
  O99      1.0000 0.23947  0.23947  0.89650  Biso   1.000  O
  O100     1.0000 0.00000  0.23947  0.89650  Biso   1.000  O
  O101     1.0000 0.23947  0.00000  0.89650  Biso   1.000  O
  O102     1.0000 0.76053  0.76053  0.89650  Biso   1.000  O
  O103     1.0000 0.79052  0.00000  0.50000  Biso   1.000  O
  O104     1.0000 0.00000  0.79052  0.50000  Biso   1.000  O
  O105     1.0000 0.20948  0.20948  0.50000  Biso   1.000  O
  O106     1.0000 0.20948  0.00000  0.50000  Biso   1.000  O
  O107     1.0000 0.00000  0.20948  0.50000  Biso   1.000  O
  O108     1.0000 0.79052  0.79052  0.50000  Biso   1.000  O
  Ir1      1.0000 0.81689  0.00000  0.37904  Biso   1.000  Ir
  Ir2      1.0000 0.00000  0.81689  0.37904  Biso   1.000  Ir
  Ir3      1.0000 0.18311  0.18311  0.37904  Biso   1.000  Ir
  Ir4      1.0000 0.18311  0.00000  0.37904  Biso   1.000  Ir
  Ir5      1.0000 0.00000  0.18311  0.37904  Biso   1.000  Ir
  Ir6      1.0000 0.81689  0.81689  0.37904  Biso   1.000  Ir
  Ir7      1.0000 0.00000  0.81689  0.62096  Biso   1.000  Ir
  Ir8      1.0000 0.81689  0.00000  0.62096  Biso   1.000  Ir
  Ir9      1.0000 0.18311  0.18311  0.62096  Biso   1.000  Ir
  Ir10     1.0000 0.00000  0.18311  0.62096  Biso   1.000  Ir
  Ir11     1.0000 0.18311  0.00000  0.62096  Biso   1.000  Ir
  Ir12     1.0000 0.81689  0.81689  0.62096  Biso   1.000  Ir
  Ir13     1.0000 0.81377  0.00000  0.00000  Biso   1.000  Ir
  Ir14     1.0000 0.00000  0.81377  0.00000  Biso   1.000  Ir
  Ir15     1.0000 0.18623  0.18623  0.00000  Biso   1.000  Ir
  Ir16     1.0000 0.18623  0.00000  0.00000  Biso   1.000  Ir
  Ir17     1.0000 0.00000  0.18623  0.00000  Biso   1.000  Ir
  Ir18     1.0000 0.81377  0.81377  0.00000  Biso   1.000  Ir
  Ir19     1.0000 0.69736  0.00000  0.19657  Biso   1.000  Ir
  Ir20     1.0000 0.00000  0.69736  0.19657  Biso   1.000  Ir
  Ir21     1.0000 0.30264  0.30264  0.19657  Biso   1.000  Ir
  Ir22     1.0000 0.30264  0.00000  0.19657  Biso   1.000  Ir
  Ir23     1.0000 0.00000  0.30264  0.19657  Biso   1.000  Ir
  Ir24     1.0000 0.69736  0.69736  0.19657  Biso   1.000  Ir
  Ir25     1.0000 0.00000  0.69736  0.80343  Biso   1.000  Ir
  Ir26     1.0000 0.69736  0.00000  0.80343  Biso   1.000  Ir
  Ir27     1.0000 0.30264  0.30264  0.80343  Biso   1.000  Ir
  Ir28     1.0000 0.00000  0.30264  0.80343  Biso   1.000  Ir
  Ir29     1.0000 0.30264  0.00000  0.80343  Biso   1.000  Ir
  Ir30     1.0000 0.69736  0.69736  0.80343  Biso   1.000  Ir
  Ir31     1.0000 0.15375  0.66635  0.12174  Biso   1.000  Ir
  Ir32     1.0000 0.33365  0.48740  0.12174  Biso   1.000  Ir
  Ir33     1.0000 0.51260  0.84625  0.12174  Biso   1.000  Ir
  Ir34     1.0000 0.84625  0.33365  0.12174  Biso   1.000  Ir
  Ir35     1.0000 0.66635  0.51260  0.12174  Biso   1.000  Ir
  Ir36     1.0000 0.48740  0.15375  0.12174  Biso   1.000  Ir
  Ir37     1.0000 0.66635  0.15375  0.87826  Biso   1.000  Ir
  Ir38     1.0000 0.48740  0.33365  0.87826  Biso   1.000  Ir
  Ir39     1.0000 0.84625  0.51260  0.87826  Biso   1.000  Ir
  Ir40     1.0000 0.33365  0.84625  0.87826  Biso   1.000  Ir
  Ir41     1.0000 0.51260  0.66635  0.87826  Biso   1.000  Ir
  Ir42     1.0000 0.15375  0.48740  0.87826  Biso   1.000  Ir
  Ir43     1.0000 0.84625  0.33365  0.87826  Biso   1.000  Ir
  Ir44     1.0000 0.66635  0.51260  0.87826  Biso   1.000  Ir
  Ir45     1.0000 0.48740  0.15375  0.87826  Biso   1.000  Ir
  Ir46     1.0000 0.15375  0.66635  0.87826  Biso   1.000  Ir
  Ir47     1.0000 0.33365  0.48740  0.87826  Biso   1.000  Ir
  Ir48     1.0000 0.51260  0.84625  0.87826  Biso   1.000  Ir
  Ir49     1.0000 0.33365  0.84625  0.12174  Biso   1.000  Ir
  Ir50     1.0000 0.51260  0.66635  0.12174  Biso   1.000  Ir
  Ir51     1.0000 0.15375  0.48740  0.12174  Biso   1.000  Ir
  Ir52     1.0000 0.66635  0.15375  0.12174  Biso   1.000  Ir
  Ir53     1.0000 0.48740  0.33365  0.12174  Biso   1.000  Ir
  Ir54     1.0000 0.84625  0.51260  0.12174  Biso   1.000  Ir
