data_image0
_cell_length_a       4.46916
_cell_length_b       6.26596
_cell_length_c       4.48404
_cell_angle_alpha    90
_cell_angle_beta     93.02
_cell_angle_gamma    90

_symmetry_space_group_name_H-M    "P 1"
_symmetry_int_tables_number       1

loop_
  _symmetry_equiv_pos_as_xyz
  'x, y, z'

loop_
  _atom_site_label
  _atom_site_occupancy
  _atom_site_fract_x
  _atom_site_fract_y
  _atom_site_fract_z
  _atom_site_thermal_displace_type
  _atom_site_B_iso_or_equiv
  _atom_site_type_symbol
  O1       1.0000 0.69534  0.09942  0.42244  Biso   1.000  O
  O2       1.0000 0.69534  0.90058  0.92244  Biso   1.000  O
  O3       1.0000 0.41536  0.56603  0.32577  Biso   1.000  O
  O4       1.0000 0.41536  0.43397  0.82577  Biso   1.000  O
  Ir1      1.0000 0.01430  0.75199  0.43929  Biso   1.000  Ir
  Ir2      1.0000 0.01430  0.24801  0.93929  Biso   1.000  Ir
