data_image0
_cell_length_a       10.6692
_cell_length_b       10.6907
_cell_length_c       9.72955
_cell_angle_alpha    90
_cell_angle_beta     90
_cell_angle_gamma    90

_symmetry_space_group_name_H-M    "P 1"
_symmetry_int_tables_number       1

loop_
  _symmetry_equiv_pos_as_xyz
  'x, y, z'

loop_
  _atom_site_label
  _atom_site_occupancy
  _atom_site_fract_x
  _atom_site_fract_y
  _atom_site_fract_z
  _atom_site_thermal_displace_type
  _atom_site_B_iso_or_equiv
  _atom_site_type_symbol
  O1       1.0000 0.35474  0.18063  0.50000  Biso   1.000  O
  O2       1.0000 0.64526  0.81937  0.50000  Biso   1.000  O
  O3       1.0000 0.14526  0.68063  0.50000  Biso   1.000  O
  O4       1.0000 0.85474  0.31937  0.50000  Biso   1.000  O
  O5       1.0000 0.59582  0.17438  0.68983  Biso   1.000  O
  O6       1.0000 0.40418  0.82562  0.68983  Biso   1.000  O
  O7       1.0000 0.90418  0.67438  0.31017  Biso   1.000  O
  O8       1.0000 0.09582  0.32562  0.31017  Biso   1.000  O
  O9       1.0000 0.40418  0.82562  0.31017  Biso   1.000  O
  O10      1.0000 0.59582  0.17438  0.31017  Biso   1.000  O
  O11      1.0000 0.09582  0.32562  0.68983  Biso   1.000  O
  O12      1.0000 0.90418  0.67438  0.68983  Biso   1.000  O
  O13      1.0000 0.88128  0.11942  0.74956  Biso   1.000  O
  O14      1.0000 0.11872  0.88058  0.74956  Biso   1.000  O
  O15      1.0000 0.61872  0.61942  0.25044  Biso   1.000  O
  O16      1.0000 0.38128  0.38058  0.25044  Biso   1.000  O
  O17      1.0000 0.11872  0.88058  0.25044  Biso   1.000  O
  O18      1.0000 0.88128  0.11942  0.25044  Biso   1.000  O
  O19      1.0000 0.38128  0.38058  0.74956  Biso   1.000  O
  O20      1.0000 0.61872  0.61942  0.74956  Biso   1.000  O
  O21      1.0000 0.32423  0.09594  0.81043  Biso   1.000  O
  O22      1.0000 0.67577  0.90406  0.81043  Biso   1.000  O
  O23      1.0000 0.17577  0.59594  0.18957  Biso   1.000  O
  O24      1.0000 0.82423  0.40406  0.18957  Biso   1.000  O
  O25      1.0000 0.67577  0.90406  0.18957  Biso   1.000  O
  O26      1.0000 0.32423  0.09594  0.18957  Biso   1.000  O
  O27      1.0000 0.82423  0.40406  0.81043  Biso   1.000  O
  O28      1.0000 0.17577  0.59594  0.81043  Biso   1.000  O
  O29      1.0000 0.68210  0.14502  0.00000  Biso   1.000  O
  O30      1.0000 0.31790  0.85498  0.00000  Biso   1.000  O
  O31      1.0000 0.81790  0.64502  0.00000  Biso   1.000  O
  O32      1.0000 0.18210  0.35498  0.00000  Biso   1.000  O
  Ir1      1.0000 0.41610  0.20887  0.68671  Biso   1.000  Ir
  Ir2      1.0000 0.58390  0.79113  0.68671  Biso   1.000  Ir
  Ir3      1.0000 0.08390  0.70887  0.31329  Biso   1.000  Ir
  Ir4      1.0000 0.91610  0.29113  0.31329  Biso   1.000  Ir
  Ir5      1.0000 0.58390  0.79113  0.31329  Biso   1.000  Ir
  Ir6      1.0000 0.41610  0.20887  0.31329  Biso   1.000  Ir
  Ir7      1.0000 0.91610  0.29113  0.68671  Biso   1.000  Ir
  Ir8      1.0000 0.08390  0.70887  0.68671  Biso   1.000  Ir
  Ir9      1.0000 0.70966  0.08368  0.81337  Biso   1.000  Ir
  Ir10     1.0000 0.29034  0.91632  0.81337  Biso   1.000  Ir
  Ir11     1.0000 0.79034  0.58368  0.18663  Biso   1.000  Ir
  Ir12     1.0000 0.20966  0.41632  0.18663  Biso   1.000  Ir
  Ir13     1.0000 0.29034  0.91632  0.18663  Biso   1.000  Ir
  Ir14     1.0000 0.70966  0.08368  0.18663  Biso   1.000  Ir
  Ir15     1.0000 0.20966  0.41632  0.81337  Biso   1.000  Ir
  Ir16     1.0000 0.79034  0.58368  0.81337  Biso   1.000  Ir
