data_image0
_cell_length_a       16.8428
_cell_length_b       8.42127
_cell_length_c       7.83193
_cell_angle_alpha    90
_cell_angle_beta     90
_cell_angle_gamma    90

_symmetry_space_group_name_H-M    "P 1"
_symmetry_int_tables_number       1

loop_
  _symmetry_equiv_pos_as_xyz
  'x, y, z'

loop_
  _atom_site_label
  _atom_site_occupancy
  _atom_site_fract_x
  _atom_site_fract_y
  _atom_site_fract_z
  _atom_site_thermal_displace_type
  _atom_site_B_iso_or_equiv
  _atom_site_type_symbol
  O1       1.0000 0.00000  0.00000  0.00000  Biso   1.000  O
  O2       1.0000 0.50000  0.00000  0.00000  Biso   1.000  O
  O3       1.0000 0.15367  0.80726  0.11830  Biso   1.000  O
  O4       1.0000 0.34633  0.19274  0.11830  Biso   1.000  O
  O5       1.0000 0.84633  0.80726  0.88170  Biso   1.000  O
  O6       1.0000 0.65367  0.19274  0.88170  Biso   1.000  O
  O7       1.0000 0.84633  0.19274  0.88170  Biso   1.000  O
  O8       1.0000 0.65367  0.80726  0.88170  Biso   1.000  O
  O9       1.0000 0.15367  0.19274  0.11830  Biso   1.000  O
  O10      1.0000 0.34633  0.80726  0.11830  Biso   1.000  O
  O11      1.0000 0.15355  0.00000  0.76109  Biso   1.000  O
  O12      1.0000 0.34645  0.00000  0.76109  Biso   1.000  O
  O13      1.0000 0.84645  0.00000  0.23890  Biso   1.000  O
  O14      1.0000 0.65355  0.00000  0.23890  Biso   1.000  O
  O15      1.0000 0.25000  0.50000  0.23831  Biso   1.000  O
  O16      1.0000 0.75000  0.50000  0.76169  Biso   1.000  O
  O17      1.0000 0.25000  0.80727  0.47562  Biso   1.000  O
  O18      1.0000 0.25000  0.19273  0.47562  Biso   1.000  O
  O19      1.0000 0.75000  0.80727  0.52438  Biso   1.000  O
  O20      1.0000 0.75000  0.19273  0.52438  Biso   1.000  O
  Ir1      1.0000 0.11522  0.00000  0.99934  Biso   1.000  Ir
  Ir2      1.0000 0.38478  0.00000  0.99934  Biso   1.000  Ir
  Ir3      1.0000 0.88478  0.00000  0.00066  Biso   1.000  Ir
  Ir4      1.0000 0.61522  0.00000  0.00066  Biso   1.000  Ir
  Ir5      1.0000 0.25000  0.73037  0.23749  Biso   1.000  Ir
  Ir6      1.0000 0.25000  0.26963  0.23749  Biso   1.000  Ir
  Ir7      1.0000 0.75000  0.73037  0.76251  Biso   1.000  Ir
  Ir8      1.0000 0.75000  0.26963  0.76251  Biso   1.000  Ir
  Ir9      1.0000 0.25000  0.00000  0.61837  Biso   1.000  Ir
  Ir10     1.0000 0.75000  0.00000  0.38163  Biso   1.000  Ir
