data_image0
_cell_length_a       5.54817
_cell_length_b       6.13267
_cell_length_c       5.43189
_cell_angle_alpha    90
_cell_angle_beta     90
_cell_angle_gamma    90

_symmetry_space_group_name_H-M    "P 1"
_symmetry_int_tables_number       1

loop_
  _symmetry_equiv_pos_as_xyz
  'x, y, z'

loop_
  _atom_site_label
  _atom_site_occupancy
  _atom_site_fract_x
  _atom_site_fract_y
  _atom_site_fract_z
  _atom_site_thermal_displace_type
  _atom_site_B_iso_or_equiv
  _atom_site_type_symbol
  Ir1      1.0000 0.00000  0.41310  0.75000  Biso   1.000  Ir
  Ir2      1.0000 0.50000  0.58689  0.75000  Biso   1.000  Ir
  Ir3      1.0000 0.00000  0.58689  0.25000  Biso   1.000  Ir
  Ir4      1.0000 0.50000  0.41310  0.25000  Biso   1.000  Ir
  O1       1.0000 0.35266  0.73562  0.40088  Biso   1.000  O
  O2       1.0000 0.14734  0.26438  0.40088  Biso   1.000  O
  O3       1.0000 0.64734  0.73562  0.09912  Biso   1.000  O
  O4       1.0000 0.85266  0.26438  0.09912  Biso   1.000  O
  O5       1.0000 0.64734  0.26438  0.59912  Biso   1.000  O
  O6       1.0000 0.85266  0.73562  0.59912  Biso   1.000  O
  O7       1.0000 0.35266  0.26438  0.90088  Biso   1.000  O
  O8       1.0000 0.14734  0.73562  0.90088  Biso   1.000  O
