data_image0
_cell_length_a       4.05347
_cell_length_b       13.9859
_cell_length_c       5.83026
_cell_angle_alpha    90
_cell_angle_beta     90
_cell_angle_gamma    90

_symmetry_space_group_name_H-M    "P 1"
_symmetry_int_tables_number       1

loop_
  _symmetry_equiv_pos_as_xyz
  'x, y, z'

loop_
  _atom_site_label
  _atom_site_occupancy
  _atom_site_fract_x
  _atom_site_fract_y
  _atom_site_fract_z
  _atom_site_thermal_displace_type
  _atom_site_B_iso_or_equiv
  _atom_site_type_symbol
  O1       1.0000 0.50000  0.64709  0.25000  Biso   1.000  O
  O2       1.0000 0.00000  0.85291  0.75000  Biso   1.000  O
  O3       1.0000 0.50000  0.95720  0.25000  Biso   1.000  O
  O4       1.0000 0.00000  0.54280  0.75000  Biso   1.000  O
  O5       1.0000 0.00000  0.14709  0.25000  Biso   1.000  O
  O6       1.0000 0.50000  0.35291  0.75000  Biso   1.000  O
  O7       1.0000 0.00000  0.45720  0.25000  Biso   1.000  O
  O8       1.0000 0.50000  0.04280  0.75000  Biso   1.000  O
  Ir1      1.0000 0.00000  0.81238  0.25000  Biso   1.000  Ir
  Ir2      1.0000 0.50000  0.68762  0.75000  Biso   1.000  Ir
  Ir3      1.0000 0.50000  0.31238  0.25000  Biso   1.000  Ir
  Ir4      1.0000 0.00000  0.18762  0.75000  Biso   1.000  Ir
