data_image0
_cell_length_a       5.36186
_cell_length_b       5.36185
_cell_length_c       83.0303
_cell_angle_alpha    90
_cell_angle_beta     90
_cell_angle_gamma    120

_symmetry_space_group_name_H-M    "P 1"
_symmetry_int_tables_number       1

loop_
  _symmetry_equiv_pos_as_xyz
  'x, y, z'

loop_
  _atom_site_label
  _atom_site_occupancy
  _atom_site_fract_x
  _atom_site_fract_y
  _atom_site_fract_z
  _atom_site_thermal_displace_type
  _atom_site_B_iso_or_equiv
  _atom_site_type_symbol
  Ir1      1.0000 0.33333  0.66667  0.12500  Biso   1.000  Ir
  Ir2      1.0000 0.33333  0.66667  0.20833  Biso   1.000  Ir
  Ir3      1.0000 0.66667  0.33333  0.29167  Biso   1.000  Ir
  Ir4      1.0000 0.00000  0.00000  0.04167  Biso   1.000  Ir
  Ir5      1.0000 0.00000  0.00000  0.45833  Biso   1.000  Ir
  Ir6      1.0000 0.00000  0.00000  0.54167  Biso   1.000  Ir
  Ir7      1.0000 0.33333  0.66667  0.62500  Biso   1.000  Ir
  Ir8      1.0000 0.66667  0.33333  0.37500  Biso   1.000  Ir
  Ir9      1.0000 0.66667  0.33333  0.79166  Biso   1.000  Ir
  Ir10     1.0000 0.66667  0.33333  0.87500  Biso   1.000  Ir
  Ir11     1.0000 0.00000  0.00000  0.95833  Biso   1.000  Ir
  Ir12     1.0000 0.33333  0.66667  0.70833  Biso   1.000  Ir
  O1       1.0000 0.00000  0.00000  0.14591  Biso   1.000  O
  O2       1.0000 0.66667  0.33333  0.18743  Biso   1.000  O
  O3       1.0000 0.00000  0.00000  0.22923  Biso   1.000  O
  O4       1.0000 0.66667  0.33333  0.10410  Biso   1.000  O
  O5       1.0000 0.33333  0.66667  0.27077  Biso   1.000  O
  O6       1.0000 0.33333  0.66667  0.06256  Biso   1.000  O
  O7       1.0000 0.00000  0.00000  0.31257  Biso   1.000  O
  O8       1.0000 0.66667  0.33333  0.02077  Biso   1.000  O
  O9       1.0000 0.66667  0.33333  0.47924  Biso   1.000  O
  O10      1.0000 0.33333  0.66667  0.52076  Biso   1.000  O
  O11      1.0000 0.66667  0.33333  0.56257  Biso   1.000  O
  O12      1.0000 0.33333  0.66667  0.43743  Biso   1.000  O
  O13      1.0000 0.00000  0.00000  0.60410  Biso   1.000  O
  O14      1.0000 0.00000  0.00000  0.39590  Biso   1.000  O
  O15      1.0000 0.66667  0.33333  0.64590  Biso   1.000  O
  O16      1.0000 0.33333  0.66667  0.35410  Biso   1.000  O
  O17      1.0000 0.33333  0.66667  0.81257  Biso   1.000  O
  O18      1.0000 0.00000  0.00000  0.85410  Biso   1.000  O
  O19      1.0000 0.33333  0.66667  0.89590  Biso   1.000  O
  O20      1.0000 0.00000  0.00000  0.77077  Biso   1.000  O
  O21      1.0000 0.66667  0.33333  0.93744  Biso   1.000  O
  O22      1.0000 0.66667  0.33333  0.72923  Biso   1.000  O
  O23      1.0000 0.33333  0.66667  0.97923  Biso   1.000  O
  O24      1.0000 0.00000  0.00000  0.68743  Biso   1.000  O
