data_image0
_cell_length_a       24.4386
_cell_length_b       20.9921
_cell_length_c       13.6244
_cell_angle_alpha    90
_cell_angle_beta     106.184
_cell_angle_gamma    90

_symmetry_space_group_name_H-M    "P 1"
_symmetry_int_tables_number       1

loop_
  _symmetry_equiv_pos_as_xyz
  'x, y, z'

loop_
  _atom_site_label
  _atom_site_occupancy
  _atom_site_fract_x
  _atom_site_fract_y
  _atom_site_fract_z
  _atom_site_thermal_displace_type
  _atom_site_B_iso_or_equiv
  _atom_site_type_symbol
  O1       1.0000 0.19279  0.51671  0.91894  Biso   1.000  O
  O2       1.0000 0.80721  0.51671  0.58106  Biso   1.000  O
  O3       1.0000 0.80721  0.48329  0.08106  Biso   1.000  O
  O4       1.0000 0.19279  0.48329  0.41895  Biso   1.000  O
  O5       1.0000 0.00488  0.44738  0.40456  Biso   1.000  O
  O6       1.0000 0.99512  0.44738  0.09544  Biso   1.000  O
  O7       1.0000 0.99512  0.55262  0.59544  Biso   1.000  O
  O8       1.0000 0.00488  0.55262  0.90456  Biso   1.000  O
  O9       1.0000 0.14971  0.30258  0.40455  Biso   1.000  O
  O10      1.0000 0.85029  0.30258  0.09545  Biso   1.000  O
  O11      1.0000 0.85029  0.69742  0.59545  Biso   1.000  O
  O12      1.0000 0.14971  0.69742  0.90455  Biso   1.000  O
  O13      1.0000 0.02382  0.73333  0.58101  Biso   1.000  O
  O14      1.0000 0.97618  0.73333  0.91899  Biso   1.000  O
  O15      1.0000 0.97618  0.26667  0.41899  Biso   1.000  O
  O16      1.0000 0.02382  0.26667  0.08101  Biso   1.000  O
  O17      1.0000 0.89016  0.60983  0.00002  Biso   1.000  O
  O18      1.0000 0.10984  0.60983  0.49998  Biso   1.000  O
  O19      1.0000 0.10984  0.39017  0.99998  Biso   1.000  O
  O20      1.0000 0.89016  0.39017  0.50002  Biso   1.000  O
  O21      1.0000 0.20019  0.37498  0.24998  Biso   1.000  O
  O22      1.0000 0.79981  0.37498  0.25002  Biso   1.000  O
  O23      1.0000 0.79981  0.62501  0.75002  Biso   1.000  O
  O24      1.0000 0.20019  0.62501  0.74998  Biso   1.000  O
  O25      1.0000 0.64016  0.64015  0.50001  Biso   1.000  O
  O26      1.0000 0.35984  0.64015  0.99999  Biso   1.000  O
  O27      1.0000 0.35984  0.35985  0.49999  Biso   1.000  O
  O28      1.0000 0.64016  0.35985  0.00001  Biso   1.000  O
  O29      1.0000 0.00000  0.42483  0.75000  Biso   1.000  O
  O30      1.0000 0.00000  0.57517  0.25000  Biso   1.000  O
  O31      1.0000 0.00000  0.82519  0.75000  Biso   1.000  O
  O32      1.0000 0.00000  0.17481  0.25000  Biso   1.000  O
  O33      1.0000 0.69279  0.01671  0.91894  Biso   1.000  O
  O34      1.0000 0.30721  0.01671  0.58106  Biso   1.000  O
  O35      1.0000 0.30721  0.98329  0.08106  Biso   1.000  O
  O36      1.0000 0.69279  0.98329  0.41895  Biso   1.000  O
  O37      1.0000 0.50488  0.94738  0.40456  Biso   1.000  O
  O38      1.0000 0.49512  0.94738  0.09544  Biso   1.000  O
  O39      1.0000 0.49512  0.05262  0.59544  Biso   1.000  O
  O40      1.0000 0.50488  0.05262  0.90456  Biso   1.000  O
  O41      1.0000 0.64971  0.80258  0.40455  Biso   1.000  O
  O42      1.0000 0.35030  0.80258  0.09545  Biso   1.000  O
  O43      1.0000 0.35030  0.19742  0.59545  Biso   1.000  O
  O44      1.0000 0.64971  0.19742  0.90455  Biso   1.000  O
  O45      1.0000 0.52382  0.23333  0.58101  Biso   1.000  O
  O46      1.0000 0.47618  0.23333  0.91899  Biso   1.000  O
  O47      1.0000 0.47618  0.76667  0.41899  Biso   1.000  O
  O48      1.0000 0.52382  0.76667  0.08101  Biso   1.000  O
  O49      1.0000 0.39016  0.10983  0.00002  Biso   1.000  O
  O50      1.0000 0.60984  0.10983  0.49998  Biso   1.000  O
  O51      1.0000 0.60984  0.89017  0.99998  Biso   1.000  O
  O52      1.0000 0.39016  0.89017  0.50002  Biso   1.000  O
  O53      1.0000 0.70019  0.87499  0.24998  Biso   1.000  O
  O54      1.0000 0.29981  0.87499  0.25002  Biso   1.000  O
  O55      1.0000 0.29981  0.12501  0.75002  Biso   1.000  O
  O56      1.0000 0.70019  0.12501  0.74998  Biso   1.000  O
  O57      1.0000 0.14016  0.14015  0.50001  Biso   1.000  O
  O58      1.0000 0.85984  0.14015  0.99999  Biso   1.000  O
  O59      1.0000 0.85984  0.85985  0.49999  Biso   1.000  O
  O60      1.0000 0.14016  0.85985  0.00001  Biso   1.000  O
  O61      1.0000 0.50000  0.92483  0.75000  Biso   1.000  O
  O62      1.0000 0.50000  0.07517  0.25000  Biso   1.000  O
  O63      1.0000 0.50000  0.32519  0.75000  Biso   1.000  O
  O64      1.0000 0.50000  0.67481  0.25000  Biso   1.000  O
  Ir1      1.0000 0.06634  0.22069  0.39368  Biso   1.000  Ir
  Ir2      1.0000 0.93366  0.22069  0.10632  Biso   1.000  Ir
  Ir3      1.0000 0.93366  0.77931  0.60632  Biso   1.000  Ir
  Ir4      1.0000 0.06634  0.77931  0.89368  Biso   1.000  Ir
  Ir5      1.0000 0.08244  0.36949  0.10629  Biso   1.000  Ir
  Ir6      1.0000 0.91756  0.36949  0.39371  Biso   1.000  Ir
  Ir7      1.0000 0.91756  0.63051  0.89371  Biso   1.000  Ir
  Ir8      1.0000 0.08244  0.63051  0.60629  Biso   1.000  Ir
  Ir9      1.0000 0.22615  0.38048  0.39367  Biso   1.000  Ir
  Ir10     1.0000 0.77385  0.38048  0.10633  Biso   1.000  Ir
  Ir11     1.0000 0.77385  0.61952  0.60633  Biso   1.000  Ir
  Ir12     1.0000 0.22615  0.61952  0.89367  Biso   1.000  Ir
  Ir13     1.0000 0.07733  0.47071  0.89368  Biso   1.000  Ir
  Ir14     1.0000 0.92267  0.47071  0.60632  Biso   1.000  Ir
  Ir15     1.0000 0.92267  0.52929  0.10632  Biso   1.000  Ir
  Ir16     1.0000 0.07733  0.52929  0.39368  Biso   1.000  Ir
  Ir17     1.0000 0.56634  0.72069  0.39368  Biso   1.000  Ir
  Ir18     1.0000 0.43366  0.72069  0.10632  Biso   1.000  Ir
  Ir19     1.0000 0.43366  0.27931  0.60632  Biso   1.000  Ir
  Ir20     1.0000 0.56634  0.27931  0.89368  Biso   1.000  Ir
  Ir21     1.0000 0.58244  0.86949  0.10629  Biso   1.000  Ir
  Ir22     1.0000 0.41756  0.86949  0.39371  Biso   1.000  Ir
  Ir23     1.0000 0.41756  0.13051  0.89371  Biso   1.000  Ir
  Ir24     1.0000 0.58244  0.13051  0.60629  Biso   1.000  Ir
  Ir25     1.0000 0.72615  0.88048  0.39367  Biso   1.000  Ir
  Ir26     1.0000 0.27385  0.88048  0.10633  Biso   1.000  Ir
  Ir27     1.0000 0.27385  0.11952  0.60633  Biso   1.000  Ir
  Ir28     1.0000 0.72615  0.11952  0.89367  Biso   1.000  Ir
  Ir29     1.0000 0.57733  0.97071  0.89368  Biso   1.000  Ir
  Ir30     1.0000 0.42267  0.97071  0.60632  Biso   1.000  Ir
  Ir31     1.0000 0.42267  0.02929  0.10632  Biso   1.000  Ir
  Ir32     1.0000 0.57733  0.02929  0.39368  Biso   1.000  Ir
