data_image0
_cell_length_a       16.867
_cell_length_b       16.867
_cell_length_c       7.85191
_cell_angle_alpha    90
_cell_angle_beta     90
_cell_angle_gamma    90

_symmetry_space_group_name_H-M    "P 1"
_symmetry_int_tables_number       1

loop_
  _symmetry_equiv_pos_as_xyz
  'x, y, z'

loop_
  _atom_site_label
  _atom_site_occupancy
  _atom_site_fract_x
  _atom_site_fract_y
  _atom_site_fract_z
  _atom_site_thermal_displace_type
  _atom_site_B_iso_or_equiv
  _atom_site_type_symbol
  O1       1.0000 0.00000  0.25000  0.62500  Biso   1.000  O
  O2       1.0000 0.00000  0.75000  0.62500  Biso   1.000  O
  O3       1.0000 0.75000  0.50000  0.87500  Biso   1.000  O
  O4       1.0000 0.25000  0.50000  0.87500  Biso   1.000  O
  O5       1.0000 0.09574  0.09574  0.50000  Biso   1.000  O
  O6       1.0000 0.40426  0.40426  0.00000  Biso   1.000  O
  O7       1.0000 0.90426  0.59574  0.75000  Biso   1.000  O
  O8       1.0000 0.09574  0.40426  0.75000  Biso   1.000  O
  O9       1.0000 0.90426  0.40426  0.75000  Biso   1.000  O
  O10      1.0000 0.09574  0.59574  0.75000  Biso   1.000  O
  O11      1.0000 0.59574  0.40426  0.00000  Biso   1.000  O
  O12      1.0000 0.90426  0.09574  0.50000  Biso   1.000  O
  O13      1.0000 0.00000  0.40440  0.39361  Biso   1.000  O
  O14      1.0000 0.00000  0.59560  0.39361  Biso   1.000  O
  O15      1.0000 0.59560  0.50000  0.64362  Biso   1.000  O
  O16      1.0000 0.40440  0.50000  0.64362  Biso   1.000  O
  O17      1.0000 0.00000  0.90440  0.85639  Biso   1.000  O
  O18      1.0000 0.00000  0.09560  0.85639  Biso   1.000  O
  O19      1.0000 0.90440  0.50000  0.10639  Biso   1.000  O
  O20      1.0000 0.09560  0.50000  0.10639  Biso   1.000  O
  O21      1.0000 0.50000  0.75000  0.12500  Biso   1.000  O
  O22      1.0000 0.50000  0.25000  0.12500  Biso   1.000  O
  O23      1.0000 0.25000  0.00000  0.37500  Biso   1.000  O
  O24      1.0000 0.75000  0.00000  0.37500  Biso   1.000  O
  O25      1.0000 0.59574  0.59574  0.00000  Biso   1.000  O
  O26      1.0000 0.90426  0.90426  0.50000  Biso   1.000  O
  O27      1.0000 0.40426  0.09574  0.25000  Biso   1.000  O
  O28      1.0000 0.59574  0.90426  0.25000  Biso   1.000  O
  O29      1.0000 0.40426  0.90426  0.25000  Biso   1.000  O
  O30      1.0000 0.59574  0.09574  0.25000  Biso   1.000  O
  O31      1.0000 0.09574  0.90426  0.50000  Biso   1.000  O
  O32      1.0000 0.40426  0.59574  0.00000  Biso   1.000  O
  O33      1.0000 0.50000  0.90440  0.89362  Biso   1.000  O
  O34      1.0000 0.50000  0.09560  0.89362  Biso   1.000  O
  O35      1.0000 0.09560  0.00000  0.14362  Biso   1.000  O
  O36      1.0000 0.90440  0.00000  0.14362  Biso   1.000  O
  O37      1.0000 0.50000  0.40440  0.35639  Biso   1.000  O
  O38      1.0000 0.50000  0.59560  0.35639  Biso   1.000  O
  O39      1.0000 0.40440  0.00000  0.60639  Biso   1.000  O
  O40      1.0000 0.59560  0.00000  0.60639  Biso   1.000  O
  Ir1      1.0000 0.00000  0.36532  0.63043  Biso   1.000  Ir
  Ir2      1.0000 0.00000  0.63468  0.63043  Biso   1.000  Ir
  Ir3      1.0000 0.63468  0.50000  0.88043  Biso   1.000  Ir
  Ir4      1.0000 0.36532  0.50000  0.88043  Biso   1.000  Ir
  Ir5      1.0000 0.00000  0.86532  0.61957  Biso   1.000  Ir
  Ir6      1.0000 0.00000  0.13468  0.61957  Biso   1.000  Ir
  Ir7      1.0000 0.86532  0.50000  0.86957  Biso   1.000  Ir
  Ir8      1.0000 0.13468  0.50000  0.86957  Biso   1.000  Ir
  Ir9      1.0000 0.00000  0.00000  0.00000  Biso   1.000  Ir
  Ir10     1.0000 0.00000  0.50000  0.25000  Biso   1.000  Ir
  Ir11     1.0000 0.50000  0.86532  0.13043  Biso   1.000  Ir
  Ir12     1.0000 0.50000  0.13468  0.13043  Biso   1.000  Ir
  Ir13     1.0000 0.13468  0.00000  0.38043  Biso   1.000  Ir
  Ir14     1.0000 0.86532  0.00000  0.38043  Biso   1.000  Ir
  Ir15     1.0000 0.50000  0.36532  0.11957  Biso   1.000  Ir
  Ir16     1.0000 0.50000  0.63468  0.11957  Biso   1.000  Ir
  Ir17     1.0000 0.36532  0.00000  0.36957  Biso   1.000  Ir
  Ir18     1.0000 0.63468  0.00000  0.36957  Biso   1.000  Ir
  Ir19     1.0000 0.50000  0.50000  0.50000  Biso   1.000  Ir
  Ir20     1.0000 0.50000  0.00000  0.75000  Biso   1.000  Ir
