data_image0
_cell_length_a       9.01756
_cell_length_b       17.1216
_cell_length_c       3.28891
_cell_angle_alpha    90
_cell_angle_beta     90
_cell_angle_gamma    90

_symmetry_space_group_name_H-M    "P 1"
_symmetry_int_tables_number       1

loop_
  _symmetry_equiv_pos_as_xyz
  'x, y, z'

loop_
  _atom_site_label
  _atom_site_occupancy
  _atom_site_fract_x
  _atom_site_fract_y
  _atom_site_fract_z
  _atom_site_thermal_displace_type
  _atom_site_B_iso_or_equiv
  _atom_site_type_symbol
  Ir1      1.0000 0.00000  0.00000  0.00000  Biso   1.000  Ir
  Ir2      1.0000 0.50000  0.50000  0.50000  Biso   1.000  Ir
  Ir3      1.0000 0.97737  0.20152  0.00000  Biso   1.000  Ir
  Ir4      1.0000 0.02263  0.79848  0.00000  Biso   1.000  Ir
  Ir5      1.0000 0.52263  0.70152  0.50000  Biso   1.000  Ir
  Ir6      1.0000 0.47737  0.29848  0.50000  Biso   1.000  Ir
  Ir7      1.0000 0.02745  0.40107  0.00000  Biso   1.000  Ir
  Ir8      1.0000 0.97255  0.59893  0.00000  Biso   1.000  Ir
  Ir9      1.0000 0.47255  0.90107  0.50000  Biso   1.000  Ir
  Ir10     1.0000 0.52745  0.09893  0.50000  Biso   1.000  Ir
  O1       1.0000 0.34488  0.01374  0.00000  Biso   1.000  O
  O2       1.0000 0.65512  0.98626  0.00000  Biso   1.000  O
  O3       1.0000 0.15512  0.51374  0.50000  Biso   1.000  O
  O4       1.0000 0.84488  0.48626  0.50000  Biso   1.000  O
  O5       1.0000 0.35854  0.18695  0.00000  Biso   1.000  O
  O6       1.0000 0.64146  0.81305  0.00000  Biso   1.000  O
  O7       1.0000 0.14146  0.68695  0.50000  Biso   1.000  O
  O8       1.0000 0.85854  0.31305  0.50000  Biso   1.000  O
  O9       1.0000 0.66634  0.21285  0.00000  Biso   1.000  O
  O10      1.0000 0.33366  0.78715  0.00000  Biso   1.000  O
  O11      1.0000 0.83366  0.71285  0.50000  Biso   1.000  O
  O12      1.0000 0.16634  0.28715  0.50000  Biso   1.000  O
  O13      1.0000 0.63460  0.39436  0.00000  Biso   1.000  O
  O14      1.0000 0.36540  0.60564  0.00000  Biso   1.000  O
  O15      1.0000 0.86540  0.89436  0.50000  Biso   1.000  O
  O16      1.0000 0.13460  0.10564  0.50000  Biso   1.000  O
  O17      1.0000 0.32552  0.40406  0.00000  Biso   1.000  O
  O18      1.0000 0.67448  0.59594  0.00000  Biso   1.000  O
  O19      1.0000 0.17448  0.90406  0.50000  Biso   1.000  O
  O20      1.0000 0.82552  0.09594  0.50000  Biso   1.000  O
