data_image0
_cell_length_a       34.6253
_cell_length_b       34.6252
_cell_length_c       12.9937
_cell_angle_alpha    90
_cell_angle_beta     90
_cell_angle_gamma    120

_symmetry_space_group_name_H-M    "P 1"
_symmetry_int_tables_number       1

loop_
  _symmetry_equiv_pos_as_xyz
  'x, y, z'

loop_
  _atom_site_label
  _atom_site_occupancy
  _atom_site_fract_x
  _atom_site_fract_y
  _atom_site_fract_z
  _atom_site_thermal_displace_type
  _atom_site_B_iso_or_equiv
  _atom_site_type_symbol
  O1       1.0000 0.16916  0.49142  0.60668  Biso   1.000  O
  O2       1.0000 0.84191  0.34440  0.27335  Biso   1.000  O
  O3       1.0000 0.98893  0.16418  0.94001  Biso   1.000  O
  O4       1.0000 0.83085  0.50858  0.39332  Biso   1.000  O
  O5       1.0000 0.15809  0.65560  0.72665  Biso   1.000  O
  O6       1.0000 0.01107  0.83582  0.05999  Biso   1.000  O
  O7       1.0000 0.91455  0.71138  0.95208  Biso   1.000  O
  O8       1.0000 0.95529  0.53651  0.28542  Biso   1.000  O
  O9       1.0000 0.13016  0.75211  0.61875  Biso   1.000  O
  O10      1.0000 0.08545  0.28862  0.04792  Biso   1.000  O
  O11      1.0000 0.04471  0.46349  0.71458  Biso   1.000  O
  O12      1.0000 0.86984  0.24789  0.38125  Biso   1.000  O
  O13      1.0000 0.17248  0.65745  0.87948  Biso   1.000  O
  O14      1.0000 0.00921  0.84836  0.21282  Biso   1.000  O
  O15      1.0000 0.81830  0.49418  0.54615  Biso   1.000  O
  O16      1.0000 0.82752  0.34255  0.12052  Biso   1.000  O
  O17      1.0000 0.99079  0.15164  0.78719  Biso   1.000  O
  O18      1.0000 0.18170  0.50582  0.45385  Biso   1.000  O
  O19      1.0000 0.07263  0.92702  0.24954  Biso   1.000  O
  O20      1.0000 0.73965  0.47894  0.58287  Biso   1.000  O
  O21      1.0000 0.18772  0.59404  0.91620  Biso   1.000  O
  O22      1.0000 0.92737  0.07298  0.75047  Biso   1.000  O
  O23      1.0000 0.26035  0.52106  0.41713  Biso   1.000  O
  O24      1.0000 0.81228  0.40596  0.08380  Biso   1.000  O
  O25      1.0000 0.25434  0.62438  0.33829  Biso   1.000  O
  O26      1.0000 0.70895  0.29663  0.00495  Biso   1.000  O
  O27      1.0000 0.03671  0.07899  0.67162  Biso   1.000  O
  O28      1.0000 0.74566  0.37562  0.66171  Biso   1.000  O
  O29      1.0000 0.29105  0.70337  0.99505  Biso   1.000  O
  O30      1.0000 0.96329  0.92101  0.32838  Biso   1.000  O
  O31      1.0000 0.80999  0.41806  0.58019  Biso   1.000  O
  O32      1.0000 0.24861  0.72527  0.91352  Biso   1.000  O
  O33      1.0000 0.94140  0.85668  0.24686  Biso   1.000  O
  O34      1.0000 0.19001  0.58194  0.41981  Biso   1.000  O
  O35      1.0000 0.75139  0.27474  0.08648  Biso   1.000  O
  O36      1.0000 0.05860  0.14332  0.75314  Biso   1.000  O
  O37      1.0000 0.99094  0.21143  0.69041  Biso   1.000  O
  O38      1.0000 0.12190  0.44618  0.35708  Biso   1.000  O
  O39      1.0000 0.88715  0.34239  0.02374  Biso   1.000  O
  O40      1.0000 0.00906  0.78857  0.30959  Biso   1.000  O
  O41      1.0000 0.87810  0.55382  0.64292  Biso   1.000  O
  O42      1.0000 0.11285  0.65761  0.97626  Biso   1.000  O
  O43      1.0000 0.79986  0.30179  0.50060  Biso   1.000  O
  O44      1.0000 0.03154  0.16474  0.16726  Biso   1.000  O
  O45      1.0000 0.16859  0.53347  0.83393  Biso   1.000  O
  O46      1.0000 0.20014  0.69821  0.49940  Biso   1.000  O
  O47      1.0000 0.96846  0.83526  0.83274  Biso   1.000  O
  O48      1.0000 0.83141  0.46653  0.16607  Biso   1.000  O
  O49      1.0000 0.28959  0.70216  0.33738  Biso   1.000  O
  O50      1.0000 0.96451  0.92076  0.67071  Biso   1.000  O
  O51      1.0000 0.74590  0.37708  0.00405  Biso   1.000  O
  O52      1.0000 0.71041  0.29784  0.66262  Biso   1.000  O
  O53      1.0000 0.03549  0.07924  0.32929  Biso   1.000  O
  O54      1.0000 0.25410  0.62292  0.99596  Biso   1.000  O
  O55      1.0000 0.14165  0.59563  0.64590  Biso   1.000  O
  O56      1.0000 0.07104  0.87936  0.97923  Biso   1.000  O
  O57      1.0000 0.78731  0.52502  0.31256  Biso   1.000  O
  O58      1.0000 0.85835  0.40437  0.35410  Biso   1.000  O
  O59      1.0000 0.92896  0.12064  0.02077  Biso   1.000  O
  O60      1.0000 0.21269  0.47498  0.68744  Biso   1.000  O
  O61      1.0000 0.21392  0.49973  0.82819  Biso   1.000  O
  O62      1.0000 0.83360  0.38085  0.49486  Biso   1.000  O
  O63      1.0000 0.95248  0.11942  0.16153  Biso   1.000  O
  O64      1.0000 0.78608  0.50027  0.17181  Biso   1.000  O
  O65      1.0000 0.16640  0.61915  0.50514  Biso   1.000  O
  O66      1.0000 0.04752  0.88059  0.83847  Biso   1.000  O
  O67      1.0000 0.87152  0.47875  0.30281  Biso   1.000  O
  O68      1.0000 0.18792  0.72611  0.63614  Biso   1.000  O
  O69      1.0000 0.94056  0.79514  0.96948  Biso   1.000  O
  O70      1.0000 0.12848  0.52126  0.69719  Biso   1.000  O
  O71      1.0000 0.81208  0.27389  0.36386  Biso   1.000  O
  O72      1.0000 0.05944  0.20486  0.03052  Biso   1.000  O
  O73      1.0000 0.83582  0.82475  0.94001  Biso   1.000  O
  O74      1.0000 0.50858  0.67773  0.60668  Biso   1.000  O
  O75      1.0000 0.65560  0.49751  0.27335  Biso   1.000  O
  O76      1.0000 0.49751  0.84191  0.72665  Biso   1.000  O
  O77      1.0000 0.82475  0.98893  0.05999  Biso   1.000  O
  O78      1.0000 0.67773  0.16916  0.39332  Biso   1.000  O
  O79      1.0000 0.58122  0.04471  0.28542  Biso   1.000  O
  O80      1.0000 0.62195  0.86984  0.61875  Biso   1.000  O
  O81      1.0000 0.79683  0.08545  0.95208  Biso   1.000  O
  O82      1.0000 0.75211  0.62195  0.38125  Biso   1.000  O
  O83      1.0000 0.71138  0.79683  0.04792  Biso   1.000  O
  O84      1.0000 0.53651  0.58122  0.71458  Biso   1.000  O
  O85      1.0000 0.83915  0.99079  0.21282  Biso   1.000  O
  O86      1.0000 0.67588  0.18170  0.54615  Biso   1.000  O
  O87      1.0000 0.48497  0.82752  0.87948  Biso   1.000  O
  O88      1.0000 0.49419  0.67588  0.45385  Biso   1.000  O
  O89      1.0000 0.65745  0.48497  0.12052  Biso   1.000  O
  O90      1.0000 0.84836  0.83915  0.78719  Biso   1.000  O
  O91      1.0000 0.73929  0.26035  0.58287  Biso   1.000  O
  O92      1.0000 0.40632  0.81228  0.91620  Biso   1.000  O
  O93      1.0000 0.85439  0.92737  0.24954  Biso   1.000  O
  O94      1.0000 0.59404  0.40632  0.08380  Biso   1.000  O
  O95      1.0000 0.92702  0.85439  0.75047  Biso   1.000  O
  O96      1.0000 0.47894  0.73929  0.41713  Biso   1.000  O
  O97      1.0000 0.92100  0.95771  0.67162  Biso   1.000  O
  O98      1.0000 0.37562  0.62996  0.33829  Biso   1.000  O
  O99      1.0000 0.70337  0.41233  0.00495  Biso   1.000  O
  O100     1.0000 0.41233  0.70895  0.99505  Biso   1.000  O
  O101     1.0000 0.95771  0.03671  0.32838  Biso   1.000  O
  O102     1.0000 0.62996  0.25434  0.66171  Biso   1.000  O
  O103     1.0000 0.47665  0.75139  0.91352  Biso   1.000  O
  O104     1.0000 0.91528  0.05860  0.24686  Biso   1.000  O
  O105     1.0000 0.60807  0.19001  0.58019  Biso   1.000  O
  O106     1.0000 0.85668  0.91528  0.75314  Biso   1.000  O
  O107     1.0000 0.41806  0.60807  0.41981  Biso   1.000  O
  O108     1.0000 0.72527  0.47666  0.08648  Biso   1.000  O
  O109     1.0000 0.65761  0.54476  0.02374  Biso   1.000  O
  O110     1.0000 0.78857  0.77951  0.69041  Biso   1.000  O
  O111     1.0000 0.55382  0.67572  0.35708  Biso   1.000  O
  O112     1.0000 0.67572  0.12190  0.64292  Biso   1.000  O
  O113     1.0000 0.54476  0.88715  0.97626  Biso   1.000  O
  O114     1.0000 0.77951  0.99094  0.30959  Biso   1.000  O
  O115     1.0000 0.46653  0.63513  0.83393  Biso   1.000  O
  O116     1.0000 0.69821  0.49807  0.50060  Biso   1.000  O
  O117     1.0000 0.83526  0.86680  0.16726  Biso   1.000  O
  O118     1.0000 0.86680  0.03154  0.83274  Biso   1.000  O
  O119     1.0000 0.63513  0.16859  0.16607  Biso   1.000  O
  O120     1.0000 0.49807  0.79986  0.49940  Biso   1.000  O
  O121     1.0000 0.95625  0.03549  0.67071  Biso   1.000  O
  O122     1.0000 0.63118  0.25410  0.00405  Biso   1.000  O
  O123     1.0000 0.41257  0.71041  0.33738  Biso   1.000  O
  O124     1.0000 0.37708  0.63118  0.99596  Biso   1.000  O
  O125     1.0000 0.70216  0.41257  0.66262  Biso   1.000  O
  O126     1.0000 0.92076  0.95625  0.32929  Biso   1.000  O
  O127     1.0000 0.80832  0.92896  0.97923  Biso   1.000  O
  O128     1.0000 0.73771  0.21269  0.31256  Biso   1.000  O
  O129     1.0000 0.45398  0.85835  0.64590  Biso   1.000  O
  O130     1.0000 0.52502  0.73771  0.68744  Biso   1.000  O
  O131     1.0000 0.59563  0.45398  0.35410  Biso   1.000  O
  O132     1.0000 0.87936  0.80832  0.02077  Biso   1.000  O
  O133     1.0000 0.88058  0.83307  0.16153  Biso   1.000  O
  O134     1.0000 0.50027  0.71418  0.82819  Biso   1.000  O
  O135     1.0000 0.61915  0.45275  0.49486  Biso   1.000  O
  O136     1.0000 0.45275  0.83360  0.50514  Biso   1.000  O
  O137     1.0000 0.83307  0.95248  0.83847  Biso   1.000  O
  O138     1.0000 0.71418  0.21392  0.17181  Biso   1.000  O
  O139     1.0000 0.53819  0.81208  0.63614  Biso   1.000  O
  O140     1.0000 0.85459  0.05944  0.96948  Biso   1.000  O
  O141     1.0000 0.60722  0.12848  0.30281  Biso   1.000  O
  O142     1.0000 0.79514  0.85459  0.03052  Biso   1.000  O
  O143     1.0000 0.47875  0.60722  0.69719  Biso   1.000  O
  O144     1.0000 0.72611  0.53819  0.36386  Biso   1.000  O
  O145     1.0000 0.50249  0.15809  0.27335  Biso   1.000  O
  O146     1.0000 0.17525  0.01107  0.94001  Biso   1.000  O
  O147     1.0000 0.32227  0.83084  0.60668  Biso   1.000  O
  O148     1.0000 0.16418  0.17525  0.05999  Biso   1.000  O
  O149     1.0000 0.49142  0.32227  0.39332  Biso   1.000  O
  O150     1.0000 0.34440  0.50249  0.72665  Biso   1.000  O
  O151     1.0000 0.24789  0.37805  0.61875  Biso   1.000  O
  O152     1.0000 0.28862  0.20317  0.95208  Biso   1.000  O
  O153     1.0000 0.46349  0.41878  0.28542  Biso   1.000  O
  O154     1.0000 0.41878  0.95529  0.71458  Biso   1.000  O
  O155     1.0000 0.37805  0.13016  0.38125  Biso   1.000  O
  O156     1.0000 0.20317  0.91455  0.04792  Biso   1.000  O
  O157     1.0000 0.50582  0.32412  0.54615  Biso   1.000  O
  O158     1.0000 0.34255  0.51503  0.87948  Biso   1.000  O
  O159     1.0000 0.15164  0.16085  0.21282  Biso   1.000  O
  O160     1.0000 0.16085  0.00921  0.78719  Biso   1.000  O
  O161     1.0000 0.32412  0.81830  0.45385  Biso   1.000  O
  O162     1.0000 0.51503  0.17248  0.12052  Biso   1.000  O
  O163     1.0000 0.40596  0.59368  0.91620  Biso   1.000  O
  O164     1.0000 0.07298  0.14561  0.24954  Biso   1.000  O
  O165     1.0000 0.52106  0.26071  0.58287  Biso   1.000  O
  O166     1.0000 0.26071  0.73965  0.41713  Biso   1.000  O
  O167     1.0000 0.59368  0.18772  0.08380  Biso   1.000  O
  O168     1.0000 0.14561  0.07263  0.75047  Biso   1.000  O
  O169     1.0000 0.58767  0.29105  0.00495  Biso   1.000  O
  O170     1.0000 0.04229  0.96329  0.67162  Biso   1.000  O
  O171     1.0000 0.37004  0.74566  0.33829  Biso   1.000  O
  O172     1.0000 0.07899  0.04229  0.32838  Biso   1.000  O
  O173     1.0000 0.62438  0.37004  0.66171  Biso   1.000  O
  O174     1.0000 0.29663  0.58767  0.99505  Biso   1.000  O
  O175     1.0000 0.14332  0.08472  0.24686  Biso   1.000  O
  O176     1.0000 0.58194  0.39193  0.58019  Biso   1.000  O
  O177     1.0000 0.27474  0.52335  0.91352  Biso   1.000  O
  O178     1.0000 0.52335  0.24861  0.08648  Biso   1.000  O
  O179     1.0000 0.08472  0.94140  0.75314  Biso   1.000  O
  O180     1.0000 0.39193  0.80999  0.41981  Biso   1.000  O
  O181     1.0000 0.32428  0.87810  0.35708  Biso   1.000  O
  O182     1.0000 0.45524  0.11285  0.02374  Biso   1.000  O
  O183     1.0000 0.22049  0.00906  0.69041  Biso   1.000  O
  O184     1.0000 0.34239  0.45524  0.97626  Biso   1.000  O
  O185     1.0000 0.21143  0.22049  0.30959  Biso   1.000  O
  O186     1.0000 0.44618  0.32428  0.64292  Biso   1.000  O
  O187     1.0000 0.13320  0.96846  0.16726  Biso   1.000  O
  O188     1.0000 0.36488  0.83141  0.83393  Biso   1.000  O
  O189     1.0000 0.50193  0.20014  0.50060  Biso   1.000  O
  O190     1.0000 0.53347  0.36488  0.16607  Biso   1.000  O
  O191     1.0000 0.30179  0.50193  0.49940  Biso   1.000  O
  O192     1.0000 0.16474  0.13320  0.83274  Biso   1.000  O
  O193     1.0000 0.62292  0.36882  0.00405  Biso   1.000  O
  O194     1.0000 0.29784  0.58743  0.33738  Biso   1.000  O
  O195     1.0000 0.07924  0.04375  0.67071  Biso   1.000  O
  O196     1.0000 0.04375  0.96451  0.32929  Biso   1.000  O
  O197     1.0000 0.36882  0.74590  0.99596  Biso   1.000  O
  O198     1.0000 0.58743  0.28959  0.66262  Biso   1.000  O
  O199     1.0000 0.47498  0.26229  0.31256  Biso   1.000  O
  O200     1.0000 0.40437  0.54602  0.64590  Biso   1.000  O
  O201     1.0000 0.12064  0.19168  0.97923  Biso   1.000  O
  O202     1.0000 0.19168  0.07104  0.02077  Biso   1.000  O
  O203     1.0000 0.26229  0.78731  0.68744  Biso   1.000  O
  O204     1.0000 0.54602  0.14165  0.35410  Biso   1.000  O
  O205     1.0000 0.54725  0.16640  0.49486  Biso   1.000  O
  O206     1.0000 0.16693  0.04752  0.16153  Biso   1.000  O
  O207     1.0000 0.28582  0.78608  0.82819  Biso   1.000  O
  O208     1.0000 0.11942  0.16693  0.83847  Biso   1.000  O
  O209     1.0000 0.49973  0.28582  0.17181  Biso   1.000  O
  O210     1.0000 0.38085  0.54725  0.50514  Biso   1.000  O
  O211     1.0000 0.20486  0.14541  0.96948  Biso   1.000  O
  O212     1.0000 0.52126  0.39278  0.30281  Biso   1.000  O
  O213     1.0000 0.27389  0.46181  0.63614  Biso   1.000  O
  O214     1.0000 0.46181  0.18792  0.36386  Biso   1.000  O
  O215     1.0000 0.14541  0.94056  0.03052  Biso   1.000  O
  O216     1.0000 0.39278  0.87152  0.69719  Biso   1.000  O
  Ir1      1.0000 0.06052  0.77023  0.27387  Biso   1.000  Ir
  Ir2      1.0000 0.89644  0.62363  0.60720  Biso   1.000  Ir
  Ir3      1.0000 0.04304  0.60615  0.94054  Biso   1.000  Ir
  Ir4      1.0000 0.93948  0.22977  0.72613  Biso   1.000  Ir
  Ir5      1.0000 0.10356  0.37637  0.39280  Biso   1.000  Ir
  Ir6      1.0000 0.95696  0.39385  0.05946  Biso   1.000  Ir
  Ir7      1.0000 0.11122  0.32663  0.92893  Biso   1.000  Ir
  Ir8      1.0000 0.00670  0.45126  0.59560  Biso   1.000  Ir
  Ir9      1.0000 0.88208  0.22211  0.26226  Biso   1.000  Ir
  Ir10     1.0000 0.88878  0.67337  0.07107  Biso   1.000  Ir
  Ir11     1.0000 0.99330  0.54874  0.40440  Biso   1.000  Ir
  Ir12     1.0000 0.11793  0.77789  0.73774  Biso   1.000  Ir
  Ir13     1.0000 0.15385  0.80739  0.52532  Biso   1.000  Ir
  Ir14     1.0000 0.85928  0.67980  0.85865  Biso   1.000  Ir
  Ir15     1.0000 0.98687  0.51282  0.19198  Biso   1.000  Ir
  Ir16     1.0000 0.84615  0.19261  0.47468  Biso   1.000  Ir
  Ir17     1.0000 0.14072  0.32020  0.14135  Biso   1.000  Ir
  Ir18     1.0000 0.01313  0.48718  0.80802  Biso   1.000  Ir
  Ir19     1.0000 0.02869  0.29786  0.09192  Biso   1.000  Ir
  Ir20     1.0000 0.03548  0.39749  0.75858  Biso   1.000  Ir
  Ir21     1.0000 0.93584  0.30465  0.42525  Biso   1.000  Ir
  Ir22     1.0000 0.97131  0.70214  0.90809  Biso   1.000  Ir
  Ir23     1.0000 0.96452  0.60251  0.24142  Biso   1.000  Ir
  Ir24     1.0000 0.06416  0.69535  0.57475  Biso   1.000  Ir
  Ir25     1.0000 0.85195  0.54191  0.77437  Biso   1.000  Ir
  Ir26     1.0000 0.12476  0.64338  0.10770  Biso   1.000  Ir
  Ir27     1.0000 0.02329  0.81472  0.44104  Biso   1.000  Ir
  Ir28     1.0000 0.14805  0.45809  0.22563  Biso   1.000  Ir
  Ir29     1.0000 0.87524  0.35662  0.89230  Biso   1.000  Ir
  Ir30     1.0000 0.97671  0.18528  0.55896  Biso   1.000  Ir
  Ir31     1.0000 0.05792  0.27439  0.68896  Biso   1.000  Ir
  Ir32     1.0000 0.05894  0.45020  0.35563  Biso   1.000  Ir
  Ir33     1.0000 0.88314  0.27541  0.02229  Biso   1.000  Ir
  Ir34     1.0000 0.94208  0.72561  0.31104  Biso   1.000  Ir
  Ir35     1.0000 0.94106  0.54980  0.64437  Biso   1.000  Ir
  Ir36     1.0000 0.11687  0.72459  0.97771  Biso   1.000  Ir
  Ir37     1.0000 0.72719  0.10356  0.60720  Biso   1.000  Ir
  Ir38     1.0000 0.56311  0.95696  0.94054  Biso   1.000  Ir
  Ir39     1.0000 0.70971  0.93948  0.27387  Biso   1.000  Ir
  Ir40     1.0000 0.60615  0.56311  0.05946  Biso   1.000  Ir
  Ir41     1.0000 0.77023  0.70971  0.72613  Biso   1.000  Ir
  Ir42     1.0000 0.62363  0.72719  0.39280  Biso   1.000  Ir
  Ir43     1.0000 0.77789  0.65997  0.26226  Biso   1.000  Ir
  Ir44     1.0000 0.67337  0.78459  0.92893  Biso   1.000  Ir
  Ir45     1.0000 0.54874  0.55544  0.59560  Biso   1.000  Ir
  Ir46     1.0000 0.55544  0.00670  0.40440  Biso   1.000  Ir
  Ir47     1.0000 0.65997  0.88208  0.73774  Biso   1.000  Ir
  Ir48     1.0000 0.78459  0.11122  0.07107  Biso   1.000  Ir
  Ir49     1.0000 0.82052  0.14072  0.85865  Biso   1.000  Ir
  Ir50     1.0000 0.52595  0.01313  0.19198  Biso   1.000  Ir
  Ir51     1.0000 0.65354  0.84615  0.52532  Biso   1.000  Ir
  Ir52     1.0000 0.51282  0.52595  0.80802  Biso   1.000  Ir
  Ir53     1.0000 0.80739  0.65354  0.47468  Biso   1.000  Ir
  Ir54     1.0000 0.67980  0.82052  0.14135  Biso   1.000  Ir
  Ir55     1.0000 0.69535  0.63119  0.42525  Biso   1.000  Ir
  Ir56     1.0000 0.70214  0.73083  0.09192  Biso   1.000  Ir
  Ir57     1.0000 0.60251  0.63798  0.75858  Biso   1.000  Ir
  Ir58     1.0000 0.63798  0.03547  0.24142  Biso   1.000  Ir
  Ir59     1.0000 0.63119  0.93584  0.57475  Biso   1.000  Ir
  Ir60     1.0000 0.73083  0.02869  0.90809  Biso   1.000  Ir
  Ir61     1.0000 0.51862  0.87524  0.10770  Biso   1.000  Ir
  Ir62     1.0000 0.79143  0.97671  0.44104  Biso   1.000  Ir
  Ir63     1.0000 0.68996  0.14805  0.77437  Biso   1.000  Ir
  Ir64     1.0000 0.81472  0.79142  0.55896  Biso   1.000  Ir
  Ir65     1.0000 0.54191  0.68996  0.22563  Biso   1.000  Ir
  Ir66     1.0000 0.64338  0.51862  0.89230  Biso   1.000  Ir
  Ir67     1.0000 0.72459  0.60773  0.02229  Biso   1.000  Ir
  Ir68     1.0000 0.72561  0.78353  0.68896  Biso   1.000  Ir
  Ir69     1.0000 0.54980  0.60874  0.35563  Biso   1.000  Ir
  Ir70     1.0000 0.60874  0.05894  0.64437  Biso   1.000  Ir
  Ir71     1.0000 0.60773  0.88314  0.97771  Biso   1.000  Ir
  Ir72     1.0000 0.78353  0.05792  0.31104  Biso   1.000  Ir
  Ir73     1.0000 0.39385  0.43689  0.94054  Biso   1.000  Ir
  Ir74     1.0000 0.22977  0.29029  0.27387  Biso   1.000  Ir
  Ir75     1.0000 0.37637  0.27281  0.60720  Biso   1.000  Ir
  Ir76     1.0000 0.27281  0.89644  0.39280  Biso   1.000  Ir
  Ir77     1.0000 0.43689  0.04304  0.05946  Biso   1.000  Ir
  Ir78     1.0000 0.29029  0.06052  0.72613  Biso   1.000  Ir
  Ir79     1.0000 0.44456  0.99330  0.59560  Biso   1.000  Ir
  Ir80     1.0000 0.34003  0.11793  0.26226  Biso   1.000  Ir
  Ir81     1.0000 0.21541  0.88878  0.92893  Biso   1.000  Ir
  Ir82     1.0000 0.22211  0.34003  0.73774  Biso   1.000  Ir
  Ir83     1.0000 0.32663  0.21541  0.07107  Biso   1.000  Ir
  Ir84     1.0000 0.45126  0.44456  0.40440  Biso   1.000  Ir
  Ir85     1.0000 0.48718  0.47405  0.19198  Biso   1.000  Ir
  Ir86     1.0000 0.19261  0.34646  0.52532  Biso   1.000  Ir
  Ir87     1.0000 0.32020  0.17948  0.85865  Biso   1.000  Ir
  Ir88     1.0000 0.17948  0.85928  0.14135  Biso   1.000  Ir
  Ir89     1.0000 0.47405  0.98687  0.80802  Biso   1.000  Ir
  Ir90     1.0000 0.34646  0.15385  0.47468  Biso   1.000  Ir
  Ir91     1.0000 0.36202  0.96452  0.75858  Biso   1.000  Ir
  Ir92     1.0000 0.36881  0.06416  0.42525  Biso   1.000  Ir
  Ir93     1.0000 0.26917  0.97131  0.09192  Biso   1.000  Ir
  Ir94     1.0000 0.30465  0.36881  0.57475  Biso   1.000  Ir
  Ir95     1.0000 0.29786  0.26917  0.90809  Biso   1.000  Ir
  Ir96     1.0000 0.39749  0.36202  0.24142  Biso   1.000  Ir
  Ir97     1.0000 0.18528  0.20858  0.44104  Biso   1.000  Ir
  Ir98     1.0000 0.45809  0.31004  0.77437  Biso   1.000  Ir
  Ir99     1.0000 0.35662  0.48138  0.10770  Biso   1.000  Ir
  Ir100    1.0000 0.48138  0.12476  0.89230  Biso   1.000  Ir
  Ir101    1.0000 0.20858  0.02329  0.55896  Biso   1.000  Ir
  Ir102    1.0000 0.31004  0.85195  0.22563  Biso   1.000  Ir
  Ir103    1.0000 0.39126  0.94106  0.35563  Biso   1.000  Ir
  Ir104    1.0000 0.39227  0.11686  0.02229  Biso   1.000  Ir
  Ir105    1.0000 0.21647  0.94207  0.68896  Biso   1.000  Ir
  Ir106    1.0000 0.27541  0.39227  0.97771  Biso   1.000  Ir
  Ir107    1.0000 0.27439  0.21647  0.31104  Biso   1.000  Ir
  Ir108    1.0000 0.45020  0.39126  0.64437  Biso   1.000  Ir
