data_image0
_cell_length_a       11.1382
_cell_length_b       11.6422
_cell_length_c       22.1805
_cell_angle_alpha    86.3474
_cell_angle_beta     83.1405
_cell_angle_gamma    66.4567

_symmetry_space_group_name_H-M    "P 1"
_symmetry_int_tables_number       1

loop_
  _symmetry_equiv_pos_as_xyz
  'x, y, z'

loop_
  _atom_site_label
  _atom_site_occupancy
  _atom_site_fract_x
  _atom_site_fract_y
  _atom_site_fract_z
  _atom_site_thermal_displace_type
  _atom_site_B_iso_or_equiv
  _atom_site_type_symbol
  O1       1.0000 0.98211  0.49261  0.13284  Biso   1.000  O
  O2       1.0000 0.63841  0.17125  0.12558  Biso   1.000  O
  O3       1.0000 0.32416  0.81868  0.11722  Biso   1.000  O
  O4       1.0000 0.73467  0.83095  0.12816  Biso   1.000  O
  O5       1.0000 0.40382  0.07017  0.09621  Biso   1.000  O
  O6       1.0000 0.40432  0.49831  0.17250  Biso   1.000  O
  O7       1.0000 0.07405  0.73677  0.13551  Biso   1.000  O
  O8       1.0000 0.08204  0.15234  0.14513  Biso   1.000  O
  O9       1.0000 0.74426  0.39581  0.16027  Biso   1.000  O
  O10      1.0000 0.90421  0.69688  0.26136  Biso   1.000  O
  O11      1.0000 0.62822  0.26240  0.27595  Biso   1.000  O
  O12      1.0000 0.35229  0.98117  0.24291  Biso   1.000  O
  O13      1.0000 0.81500  0.75304  0.41487  Biso   1.000  O
  O14      1.0000 0.04330  0.42882  0.36640  Biso   1.000  O
  O15      1.0000 0.48103  0.99614  0.38006  Biso   1.000  O
  O16      1.0000 0.46585  0.43496  0.40977  Biso   1.000  O
  O17      1.0000 0.70704  0.09637  0.41763  Biso   1.000  O
  O18      1.0000 0.13965  0.66944  0.36380  Biso   1.000  O
  O19      1.0000 0.14107  0.09025  0.37094  Biso   1.000  O
  O20      1.0000 0.38890  0.75396  0.35896  Biso   1.000  O
  O21      1.0000 0.80219  0.33347  0.38349  Biso   1.000  O
  O22      1.0000 0.59746  0.94854  0.52892  Biso   1.000  O
  O23      1.0000 0.26352  0.71509  0.49888  Biso   1.000  O
  O24      1.0000 0.02423  0.27572  0.50263  Biso   1.000  O
  O25      1.0000 0.74516  0.82083  0.67066  Biso   1.000  O
  O26      1.0000 0.40589  0.06500  0.66233  Biso   1.000  O
  O27      1.0000 0.40607  0.48910  0.62208  Biso   1.000  O
  O28      1.0000 0.06679  0.73801  0.62403  Biso   1.000  O
  O29      1.0000 0.06408  0.16616  0.65357  Biso   1.000  O
  O30      1.0000 0.74369  0.38885  0.59981  Biso   1.000  O
  O31      1.0000 0.97203  0.49925  0.61581  Biso   1.000  O
  O32      1.0000 0.64962  0.14986  0.62876  Biso   1.000  O
  O33      1.0000 0.31371  0.82666  0.63533  Biso   1.000  O
  O34      1.0000 0.01750  0.59412  0.75811  Biso   1.000  O
  O35      1.0000 0.62279  0.36824  0.74490  Biso   1.000  O
  O36      1.0000 0.24335  0.97917  0.77708  Biso   1.000  O
  O37      1.0000 0.80310  0.76350  0.88155  Biso   1.000  O
  O38      1.0000 0.04875  0.42674  0.89654  Biso   1.000  O
  O39      1.0000 0.46459  0.00584  0.87338  Biso   1.000  O
  O40      1.0000 0.48130  0.41741  0.89140  Biso   1.000  O
  O41      1.0000 0.70680  0.09511  0.84304  Biso   1.000  O
  O42      1.0000 0.14215  0.66974  0.88390  Biso   1.000  O
  O43      1.0000 0.14083  0.09277  0.92475  Biso   1.000  O
  O44      1.0000 0.38499  0.75747  0.90171  Biso   1.000  O
  O45      1.0000 0.81913  0.32311  0.86901  Biso   1.000  O
  O46      1.0000 0.65969  0.01420  0.99149  Biso   1.000  O
  O47      1.0000 0.31941  0.58821  0.02066  Biso   1.000  O
  O48      1.0000 0.90029  0.34248  0.01801  Biso   1.000  O
  Ir1      1.0000 0.92531  0.68818  0.16470  Biso   1.000  Ir
  Ir2      1.0000 0.60432  0.33117  0.18351  Biso   1.000  Ir
  Ir3      1.0000 0.29019  0.00519  0.15069  Biso   1.000  Ir
  Ir4      1.0000 0.60893  0.02197  0.08560  Biso   1.000  Ir
  Ir5      1.0000 0.28073  0.66054  0.11151  Biso   1.000  Ir
  Ir6      1.0000 0.92825  0.34548  0.11364  Biso   1.000  Ir
  Ir7      1.0000 0.97526  0.63724  0.35199  Biso   1.000  Ir
  Ir8      1.0000 0.64971  0.94872  0.43508  Biso   1.000  Ir
  Ir9      1.0000 0.65095  0.28198  0.37103  Biso   1.000  Ir
  Ir10     1.0000 0.31411  0.64254  0.40814  Biso   1.000  Ir
  Ir11     1.0000 0.34009  0.95591  0.33863  Biso   1.000  Ir
  Ir12     1.0000 0.00122  0.28317  0.40636  Biso   1.000  Ir
  Ir13     1.0000 0.60001  0.99625  0.62207  Biso   1.000  Ir
  Ir14     1.0000 0.26399  0.69078  0.59530  Biso   1.000  Ir
  Ir15     1.0000 0.95096  0.33280  0.59330  Biso   1.000  Ir
  Ir16     1.0000 0.95051  0.66236  0.66769  Biso   1.000  Ir
  Ir17     1.0000 0.60652  0.34746  0.64959  Biso   1.000  Ir
  Ir18     1.0000 0.25771  0.00868  0.68161  Biso   1.000  Ir
  Ir19     1.0000 0.00176  0.61440  0.85477  Biso   1.000  Ir
  Ir20     1.0000 0.65809  0.96912  0.89800  Biso   1.000  Ir
  Ir21     1.0000 0.65840  0.30057  0.83744  Biso   1.000  Ir
  Ir22     1.0000 0.33177  0.60880  0.92446  Biso   1.000  Ir
  Ir23     1.0000 0.30871  0.95896  0.86885  Biso   1.000  Ir
  Ir24     1.0000 0.97697  0.29638  0.92708  Biso   1.000  Ir
