data_image0
_cell_length_a       12.0381
_cell_length_b       18.1573
_cell_length_c       10.0001
_cell_angle_alpha    90
_cell_angle_beta     100.891
_cell_angle_gamma    90

_symmetry_space_group_name_H-M    "P 1"
_symmetry_int_tables_number       1

loop_
  _symmetry_equiv_pos_as_xyz
  'x, y, z'

loop_
  _atom_site_label
  _atom_site_occupancy
  _atom_site_fract_x
  _atom_site_fract_y
  _atom_site_fract_z
  _atom_site_thermal_displace_type
  _atom_site_B_iso_or_equiv
  _atom_site_type_symbol
  O1       1.0000 0.18116  0.82997  0.19249  Biso   1.000  O
  O2       1.0000 0.18116  0.17003  0.19249  Biso   1.000  O
  O3       1.0000 0.36262  0.65331  0.82888  Biso   1.000  O
  O4       1.0000 0.36262  0.34668  0.82888  Biso   1.000  O
  O5       1.0000 0.46251  0.62273  0.30691  Biso   1.000  O
  O6       1.0000 0.46251  0.37727  0.30691  Biso   1.000  O
  O7       1.0000 0.23290  0.89065  0.48363  Biso   1.000  O
  O8       1.0000 0.23290  0.10935  0.48363  Biso   1.000  O
  O9       1.0000 0.13994  0.00000  0.23928  Biso   1.000  O
  O10      1.0000 0.33121  0.82581  0.76982  Biso   1.000  O
  O11      1.0000 0.33121  0.17419  0.76982  Biso   1.000  O
  O12      1.0000 0.56743  0.60723  0.68765  Biso   1.000  O
  O13      1.0000 0.56743  0.39277  0.68765  Biso   1.000  O
  O14      1.0000 0.44495  0.76883  0.06065  Biso   1.000  O
  O15      1.0000 0.44495  0.23117  0.06065  Biso   1.000  O
  O16      1.0000 0.29571  0.00000  0.73048  Biso   1.000  O
  O17      1.0000 0.66783  0.76087  0.93424  Biso   1.000  O
  O18      1.0000 0.66783  0.23913  0.93424  Biso   1.000  O
  O19      1.0000 0.68055  0.84757  0.20636  Biso   1.000  O
  O20      1.0000 0.68055  0.15243  0.20636  Biso   1.000  O
  O21      1.0000 0.80385  0.85548  0.51362  Biso   1.000  O
  O22      1.0000 0.80385  0.14452  0.51362  Biso   1.000  O
  O23      1.0000 0.76921  0.00000  0.33291  Biso   1.000  O
  O24      1.0000 0.84729  0.00000  0.69439  Biso   1.000  O
  O25      1.0000 0.68116  0.32997  0.19249  Biso   1.000  O
  O26      1.0000 0.68116  0.67003  0.19249  Biso   1.000  O
  O27      1.0000 0.86262  0.15332  0.82888  Biso   1.000  O
  O28      1.0000 0.86262  0.84669  0.82888  Biso   1.000  O
  O29      1.0000 0.96251  0.12273  0.30691  Biso   1.000  O
  O30      1.0000 0.96251  0.87727  0.30691  Biso   1.000  O
  O31      1.0000 0.73290  0.39065  0.48363  Biso   1.000  O
  O32      1.0000 0.73290  0.60935  0.48363  Biso   1.000  O
  O33      1.0000 0.63994  0.50000  0.23928  Biso   1.000  O
  O34      1.0000 0.83121  0.32581  0.76982  Biso   1.000  O
  O35      1.0000 0.83121  0.67419  0.76982  Biso   1.000  O
  O36      1.0000 0.06743  0.10723  0.68765  Biso   1.000  O
  O37      1.0000 0.06743  0.89277  0.68765  Biso   1.000  O
  O38      1.0000 0.94495  0.26883  0.06065  Biso   1.000  O
  O39      1.0000 0.94495  0.73117  0.06065  Biso   1.000  O
  O40      1.0000 0.79571  0.50000  0.73048  Biso   1.000  O
  O41      1.0000 0.16783  0.26087  0.93424  Biso   1.000  O
  O42      1.0000 0.16783  0.73913  0.93424  Biso   1.000  O
  O43      1.0000 0.18055  0.34757  0.20636  Biso   1.000  O
  O44      1.0000 0.18055  0.65243  0.20636  Biso   1.000  O
  O45      1.0000 0.30385  0.35548  0.51362  Biso   1.000  O
  O46      1.0000 0.30385  0.64452  0.51362  Biso   1.000  O
  O47      1.0000 0.26921  0.50000  0.33291  Biso   1.000  O
  O48      1.0000 0.34729  0.50000  0.69439  Biso   1.000  O
  Ir1      1.0000 0.12887  0.89985  0.30663  Biso   1.000  Ir
  Ir2      1.0000 0.12887  0.10015  0.30663  Biso   1.000  Ir
  Ir3      1.0000 0.32570  0.74811  0.89686  Biso   1.000  Ir
  Ir4      1.0000 0.32570  0.25189  0.89686  Biso   1.000  Ir
  Ir5      1.0000 0.23136  0.90210  0.66786  Biso   1.000  Ir
  Ir6      1.0000 0.23136  0.09790  0.66786  Biso   1.000  Ir
  Ir7      1.0000 0.62010  0.76148  0.10036  Biso   1.000  Ir
  Ir8      1.0000 0.62010  0.23852  0.10036  Biso   1.000  Ir
  Ir9      1.0000 0.80449  0.89467  0.33918  Biso   1.000  Ir
  Ir10     1.0000 0.80449  0.10533  0.33918  Biso   1.000  Ir
  Ir11     1.0000 0.89626  0.89773  0.68100  Biso   1.000  Ir
  Ir12     1.0000 0.89626  0.10227  0.68100  Biso   1.000  Ir
  Ir13     1.0000 0.62887  0.39985  0.30663  Biso   1.000  Ir
  Ir14     1.0000 0.62887  0.60015  0.30663  Biso   1.000  Ir
  Ir15     1.0000 0.82569  0.24811  0.89686  Biso   1.000  Ir
  Ir16     1.0000 0.82569  0.75189  0.89686  Biso   1.000  Ir
  Ir17     1.0000 0.73136  0.40210  0.66786  Biso   1.000  Ir
  Ir18     1.0000 0.73136  0.59790  0.66786  Biso   1.000  Ir
  Ir19     1.0000 0.12010  0.26148  0.10036  Biso   1.000  Ir
  Ir20     1.0000 0.12010  0.73852  0.10036  Biso   1.000  Ir
  Ir21     1.0000 0.30449  0.39467  0.33918  Biso   1.000  Ir
  Ir22     1.0000 0.30449  0.60533  0.33918  Biso   1.000  Ir
  Ir23     1.0000 0.39626  0.39773  0.68100  Biso   1.000  Ir
  Ir24     1.0000 0.39626  0.60227  0.68100  Biso   1.000  Ir
