data_image0
_cell_length_a       5.43066
_cell_length_b       5.43066
_cell_length_c       110.582
_cell_angle_alpha    90
_cell_angle_beta     90
_cell_angle_gamma    120

_symmetry_space_group_name_H-M    "P 1"
_symmetry_int_tables_number       1

loop_
  _symmetry_equiv_pos_as_xyz
  'x, y, z'

loop_
  _atom_site_label
  _atom_site_occupancy
  _atom_site_fract_x
  _atom_site_fract_y
  _atom_site_fract_z
  _atom_site_thermal_displace_type
  _atom_site_B_iso_or_equiv
  _atom_site_type_symbol
  Ir1      1.0000 0.00000  0.00000  0.01666  Biso   1.000  Ir
  Ir2      1.0000 0.00000  0.00000  0.81667  Biso   1.000  Ir
  Ir3      1.0000 0.33333  0.66667  0.54999  Biso   1.000  Ir
  Ir4      1.0000 0.00000  0.00000  0.61667  Biso   1.000  Ir
  Ir5      1.0000 0.00000  0.00000  0.28333  Biso   1.000  Ir
  Ir6      1.0000 0.00000  0.00000  0.35000  Biso   1.000  Ir
  Ir7      1.0000 0.00000  0.00000  0.88335  Biso   1.000  Ir
  Ir8      1.0000 0.00000  0.00000  0.15000  Biso   1.000  Ir
  Ir9      1.0000 0.00000  0.00000  0.48333  Biso   1.000  Ir
  Ir10     1.0000 0.33333  0.66667  0.08332  Biso   1.000  Ir
  Ir11     1.0000 0.00000  0.00000  0.21667  Biso   1.000  Ir
  Ir12     1.0000 0.00000  0.00000  0.68333  Biso   1.000  Ir
  Ir13     1.0000 0.00000  0.00000  0.95000  Biso   1.000  Ir
  Ir14     1.0000 0.00000  0.00000  0.41666  Biso   1.000  Ir
  Ir15     1.0000 0.00000  0.00000  0.74999  Biso   1.000  Ir
  O1       1.0000 0.33333  0.66667  0.73434  Biso   1.000  O
  O2       1.0000 0.66667  0.33333  0.56565  Biso   1.000  O
  O3       1.0000 0.33333  0.66667  0.20102  Biso   1.000  O
  O4       1.0000 0.66667  0.33333  0.43230  Biso   1.000  O
  O5       1.0000 0.33333  0.66667  0.86770  Biso   1.000  O
  O6       1.0000 0.66667  0.33333  0.36565  Biso   1.000  O
  O7       1.0000 0.66667  0.33333  0.89899  Biso   1.000  O
  O8       1.0000 0.33333  0.66667  0.46769  Biso   1.000  O
  O9       1.0000 0.66667  0.33333  0.96565  Biso   1.000  O
  O10      1.0000 0.66667  0.33333  0.23232  Biso   1.000  O
  O11      1.0000 0.66667  0.33333  0.69898  Biso   1.000  O
  O12      1.0000 0.33333  0.66667  0.60103  Biso   1.000  O
  O13      1.0000 0.66667  0.33333  0.76564  Biso   1.000  O
  O14      1.0000 0.33333  0.66667  0.66769  Biso   1.000  O
  O15      1.0000 0.33333  0.66667  0.40101  Biso   1.000  O
  O16      1.0000 0.33333  0.66667  0.80103  Biso   1.000  O
  O17      1.0000 0.66667  0.33333  0.63231  Biso   1.000  O
  O18      1.0000 0.00000  0.00000  0.53435  Biso   1.000  O
  O19      1.0000 0.33333  0.66667  0.93436  Biso   1.000  O
  O20      1.0000 0.66667  0.33333  0.09897  Biso   1.000  O
  O21      1.0000 0.33333  0.66667  0.00103  Biso   1.000  O
  O22      1.0000 0.33333  0.66667  0.13436  Biso   1.000  O
  O23      1.0000 0.00000  0.00000  0.06767  Biso   1.000  O
  O24      1.0000 0.66667  0.33333  0.03232  Biso   1.000  O
  O25      1.0000 0.33333  0.66667  0.26769  Biso   1.000  O
  O26      1.0000 0.66667  0.33333  0.29898  Biso   1.000  O
  O27      1.0000 0.33333  0.66667  0.33436  Biso   1.000  O
  O28      1.0000 0.66667  0.33333  0.83232  Biso   1.000  O
  O29      1.0000 0.66667  0.33333  0.16565  Biso   1.000  O
  O30      1.0000 0.66667  0.33333  0.49898  Biso   1.000  O
