data_image0
_cell_length_a       10.3182
_cell_length_b       17.2024
_cell_length_c       19.4615
_cell_angle_alpha    90
_cell_angle_beta     90
_cell_angle_gamma    90

_symmetry_space_group_name_H-M    "P 1"
_symmetry_int_tables_number       1

loop_
  _symmetry_equiv_pos_as_xyz
  'x, y, z'

loop_
  _atom_site_label
  _atom_site_occupancy
  _atom_site_fract_x
  _atom_site_fract_y
  _atom_site_fract_z
  _atom_site_thermal_displace_type
  _atom_site_B_iso_or_equiv
  _atom_site_type_symbol
  O1       1.0000 0.88472  0.25000  0.16776  Biso   1.000  O
  O2       1.0000 0.61528  0.75000  0.66776  Biso   1.000  O
  O3       1.0000 0.11528  0.75000  0.83224  Biso   1.000  O
  O4       1.0000 0.38472  0.25000  0.33224  Biso   1.000  O
  O5       1.0000 0.73085  0.12782  0.07214  Biso   1.000  O
  O6       1.0000 0.76915  0.87218  0.57214  Biso   1.000  O
  O7       1.0000 0.26915  0.62782  0.92786  Biso   1.000  O
  O8       1.0000 0.23085  0.37218  0.42786  Biso   1.000  O
  O9       1.0000 0.26915  0.87218  0.92786  Biso   1.000  O
  O10      1.0000 0.23085  0.12782  0.42786  Biso   1.000  O
  O11      1.0000 0.73085  0.37218  0.07214  Biso   1.000  O
  O12      1.0000 0.76915  0.62782  0.57214  Biso   1.000  O
  O13      1.0000 0.97530  0.07148  0.16085  Biso   1.000  O
  O14      1.0000 0.52471  0.92852  0.66085  Biso   1.000  O
  O15      1.0000 0.02471  0.57148  0.83915  Biso   1.000  O
  O16      1.0000 0.47530  0.42852  0.33915  Biso   1.000  O
  O17      1.0000 0.02471  0.92852  0.83915  Biso   1.000  O
  O18      1.0000 0.47530  0.07148  0.33915  Biso   1.000  O
  O19      1.0000 0.97530  0.42852  0.16085  Biso   1.000  O
  O20      1.0000 0.52471  0.57148  0.66085  Biso   1.000  O
  O21      1.0000 0.70841  0.11806  0.23738  Biso   1.000  O
  O22      1.0000 0.79159  0.88194  0.73738  Biso   1.000  O
  O23      1.0000 0.29159  0.61806  0.76262  Biso   1.000  O
  O24      1.0000 0.20841  0.38194  0.26262  Biso   1.000  O
  O25      1.0000 0.29159  0.88194  0.76262  Biso   1.000  O
  O26      1.0000 0.20841  0.11806  0.26262  Biso   1.000  O
  O27      1.0000 0.70841  0.38194  0.23738  Biso   1.000  O
  O28      1.0000 0.79159  0.61806  0.73738  Biso   1.000  O
  O29      1.0000 0.56014  0.38672  0.93455  Biso   1.000  O
  O30      1.0000 0.93986  0.61328  0.43455  Biso   1.000  O
  O31      1.0000 0.43986  0.88672  0.06545  Biso   1.000  O
  O32      1.0000 0.06014  0.11328  0.56545  Biso   1.000  O
  O33      1.0000 0.43986  0.61328  0.06545  Biso   1.000  O
  O34      1.0000 0.06014  0.38672  0.56545  Biso   1.000  O
  O35      1.0000 0.56014  0.11328  0.93455  Biso   1.000  O
  O36      1.0000 0.93986  0.88672  0.43455  Biso   1.000  O
  O37      1.0000 0.43177  0.42634  0.08148  Biso   1.000  O
  O38      1.0000 0.06823  0.57366  0.58148  Biso   1.000  O
  O39      1.0000 0.56823  0.92634  0.91852  Biso   1.000  O
  O40      1.0000 0.93177  0.07366  0.41852  Biso   1.000  O
  O41      1.0000 0.56823  0.57366  0.91852  Biso   1.000  O
  O42      1.0000 0.93177  0.42634  0.41852  Biso   1.000  O
  O43      1.0000 0.43177  0.07366  0.08148  Biso   1.000  O
  O44      1.0000 0.06823  0.92634  0.58148  Biso   1.000  O
  O45      1.0000 0.49940  0.25000  0.04239  Biso   1.000  O
  O46      1.0000 0.00060  0.75000  0.54239  Biso   1.000  O
  O47      1.0000 0.50060  0.75000  0.95761  Biso   1.000  O
  O48      1.0000 0.99940  0.25000  0.45761  Biso   1.000  O
  O49      1.0000 0.03576  0.53446  0.29422  Biso   1.000  O
  O50      1.0000 0.46424  0.46554  0.79422  Biso   1.000  O
  O51      1.0000 0.96424  0.03446  0.70578  Biso   1.000  O
  O52      1.0000 0.53576  0.96554  0.20578  Biso   1.000  O
  O53      1.0000 0.96424  0.46554  0.70578  Biso   1.000  O
  O54      1.0000 0.53576  0.53446  0.20578  Biso   1.000  O
  O55      1.0000 0.03576  0.96554  0.29422  Biso   1.000  O
  O56      1.0000 0.46424  0.03446  0.79422  Biso   1.000  O
  O57      1.0000 0.23230  0.53358  0.16609  Biso   1.000  O
  O58      1.0000 0.26770  0.46642  0.66609  Biso   1.000  O
  O59      1.0000 0.76770  0.03358  0.83391  Biso   1.000  O
  O60      1.0000 0.73230  0.96642  0.33391  Biso   1.000  O
  O61      1.0000 0.76770  0.46642  0.83391  Biso   1.000  O
  O62      1.0000 0.73230  0.53358  0.33391  Biso   1.000  O
  O63      1.0000 0.23230  0.96642  0.16609  Biso   1.000  O
  O64      1.0000 0.26770  0.03358  0.66609  Biso   1.000  O
  Ir1      1.0000 0.82502  0.14188  0.15952  Biso   1.000  Ir
  Ir2      1.0000 0.67498  0.85812  0.65952  Biso   1.000  Ir
  Ir3      1.0000 0.17498  0.64188  0.84048  Biso   1.000  Ir
  Ir4      1.0000 0.32502  0.35812  0.34048  Biso   1.000  Ir
  Ir5      1.0000 0.17498  0.85812  0.84048  Biso   1.000  Ir
  Ir6      1.0000 0.32502  0.14188  0.34048  Biso   1.000  Ir
  Ir7      1.0000 0.82502  0.35812  0.15952  Biso   1.000  Ir
  Ir8      1.0000 0.67498  0.64188  0.65952  Biso   1.000  Ir
  Ir9      1.0000 0.55592  0.35880  0.03263  Biso   1.000  Ir
  Ir10     1.0000 0.94408  0.64120  0.53264  Biso   1.000  Ir
  Ir11     1.0000 0.44408  0.85880  0.96737  Biso   1.000  Ir
  Ir12     1.0000 0.05592  0.14120  0.46736  Biso   1.000  Ir
  Ir13     1.0000 0.44408  0.64120  0.96737  Biso   1.000  Ir
  Ir14     1.0000 0.05592  0.35880  0.46736  Biso   1.000  Ir
  Ir15     1.0000 0.55592  0.14120  0.03263  Biso   1.000  Ir
  Ir16     1.0000 0.94408  0.85880  0.53264  Biso   1.000  Ir
  Ir17     1.0000 0.11264  0.46958  0.22096  Biso   1.000  Ir
  Ir18     1.0000 0.38736  0.53042  0.72096  Biso   1.000  Ir
  Ir19     1.0000 0.88736  0.96958  0.77904  Biso   1.000  Ir
  Ir20     1.0000 0.61264  0.03042  0.27904  Biso   1.000  Ir
  Ir21     1.0000 0.88736  0.53042  0.77904  Biso   1.000  Ir
  Ir22     1.0000 0.61264  0.46958  0.27904  Biso   1.000  Ir
  Ir23     1.0000 0.11264  0.03042  0.22096  Biso   1.000  Ir
  Ir24     1.0000 0.38736  0.96958  0.72096  Biso   1.000  Ir
  Ir25     1.0000 0.41012  0.97316  0.12956  Biso   1.000  Ir
  Ir26     1.0000 0.08988  0.02684  0.62956  Biso   1.000  Ir
  Ir27     1.0000 0.58988  0.47317  0.87044  Biso   1.000  Ir
  Ir28     1.0000 0.91012  0.52684  0.37044  Biso   1.000  Ir
  Ir29     1.0000 0.58988  0.02684  0.87044  Biso   1.000  Ir
  Ir30     1.0000 0.91012  0.97316  0.37044  Biso   1.000  Ir
  Ir31     1.0000 0.41012  0.52684  0.12956  Biso   1.000  Ir
  Ir32     1.0000 0.08988  0.47317  0.62956  Biso   1.000  Ir
