data_image0
_cell_length_a       18.9807
_cell_length_b       21.9375
_cell_length_c       21.9791
_cell_angle_alpha    90.158
_cell_angle_beta     111.93
_cell_angle_gamma    105.102

_symmetry_space_group_name_H-M    "P 1"
_symmetry_int_tables_number       1

loop_
  _symmetry_equiv_pos_as_xyz
  'x, y, z'

loop_
  _atom_site_label
  _atom_site_occupancy
  _atom_site_fract_x
  _atom_site_fract_y
  _atom_site_fract_z
  _atom_site_thermal_displace_type
  _atom_site_B_iso_or_equiv
  _atom_site_type_symbol
  O1       1.0000 0.99344  0.64873  0.78548  Biso   1.000  O
  O2       1.0000 0.26912  0.14213  0.39645  Biso   1.000  O
  O3       1.0000 0.54521  0.96467  0.61266  Biso   1.000  O
  O4       1.0000 0.44689  0.48183  0.86973  Biso   1.000  O
  O5       1.0000 0.73073  0.60100  0.85790  Biso   1.000  O
  O6       1.0000 0.24925  0.85290  0.14779  Biso   1.000  O
  O7       1.0000 0.12991  0.10399  0.69307  Biso   1.000  O
  O8       1.0000 0.27106  0.39807  0.14054  Biso   1.000  O
  O9       1.0000 0.72973  0.85899  0.60114  Biso   1.000  O
  O10      1.0000 0.64128  0.97618  0.84028  Biso   1.000  O
  O11      1.0000 0.86705  0.89596  0.30658  Biso   1.000  O
  O12      1.0000 0.33375  0.89823  0.30643  Biso   1.000  O
  O13      1.0000 0.44740  0.87067  0.48151  Biso   1.000  O
  O14      1.0000 0.00942  0.35099  0.21358  Biso   1.000  O
  O15      1.0000 0.83322  0.58862  0.07223  Biso   1.000  O
  O16      1.0000 0.82630  0.15863  0.02381  Biso   1.000  O
  O17      1.0000 0.00617  0.21310  0.35125  Biso   1.000  O
  O18      1.0000 0.17318  0.84103  0.97664  Biso   1.000  O
  O19      1.0000 0.56600  0.21674  0.91716  Biso   1.000  O
  O20      1.0000 0.99184  0.78621  0.64892  Biso   1.000  O
  O21      1.0000 0.90260  0.86843  0.48178  Biso   1.000  O
  O22      1.0000 0.35326  0.15757  0.02250  Biso   1.000  O
  O23      1.0000 0.03523  0.61283  0.96319  Biso   1.000  O
  O24      1.0000 0.60187  0.81377  0.81126  Biso   1.000  O
  O25      1.0000 0.43224  0.08462  0.78002  Biso   1.000  O
  O26      1.0000 0.74851  0.14721  0.85244  Biso   1.000  O
  O27      1.0000 0.09985  0.51879  0.13060  Biso   1.000  O
  O28      1.0000 0.55407  0.51858  0.13021  Biso   1.000  O
  O29      1.0000 0.96628  0.38853  0.03630  Biso   1.000  O
  O30      1.0000 0.55955  0.35177  0.21389  Biso   1.000  O
  O31      1.0000 0.55925  0.21384  0.35088  Biso   1.000  O
  O32      1.0000 0.64392  0.83976  0.97586  Biso   1.000  O
  O33      1.0000 0.03278  0.96365  0.61232  Biso   1.000  O
  O34      1.0000 0.97673  0.18690  0.18807  Biso   1.000  O
  O35      1.0000 0.44239  0.78737  0.64873  Biso   1.000  O
  O36      1.0000 0.83069  0.07431  0.58649  Biso   1.000  O
  O37      1.0000 0.17321  0.97613  0.83902  Biso   1.000  O
  O38      1.0000 0.13442  0.69394  0.10357  Biso   1.000  O
  O39      1.0000 0.75087  0.85233  0.14753  Biso   1.000  O
  O40      1.0000 0.16829  0.92732  0.41171  Biso   1.000  O
  O41      1.0000 0.45663  0.03728  0.38807  Biso   1.000  O
  O42      1.0000 0.35938  0.02466  0.16048  Biso   1.000  O
  O43      1.0000 0.43418  0.78294  0.08395  Biso   1.000  O
  O44      1.0000 0.33497  0.30577  0.89737  Biso   1.000  O
  O45      1.0000 0.96559  0.03558  0.38807  Biso   1.000  O
  O46      1.0000 0.27172  0.77279  0.77086  Biso   1.000  O
  O47      1.0000 0.55077  0.13146  0.51883  Biso   1.000  O
  O48      1.0000 0.56515  0.91398  0.21828  Biso   1.000  O
  O49      1.0000 0.90638  0.48173  0.86904  Biso   1.000  O
  O50      1.0000 0.66761  0.69394  0.10313  Biso   1.000  O
  O51      1.0000 0.89469  0.89514  0.89362  Biso   1.000  O
  O52      1.0000 0.82411  0.02339  0.16052  Biso   1.000  O
  O53      1.0000 0.10563  0.10498  0.10681  Biso   1.000  O
  O54      1.0000 0.66885  0.10378  0.69427  Biso   1.000  O
  O55      1.0000 0.86670  0.30588  0.89737  Biso   1.000  O
  O56      1.0000 0.44295  0.64990  0.78707  Biso   1.000  O
  O57      1.0000 0.16929  0.40915  0.92868  Biso   1.000  O
  O58      1.0000 0.09967  0.13005  0.51849  Biso   1.000  O
  O59      1.0000 0.54600  0.61284  0.96379  Biso   1.000  O
  O60      1.0000 0.72935  0.22916  0.22789  Biso   1.000  O
  O61      1.0000 0.02333  0.81137  0.81320  Biso   1.000  O
  O62      1.0000 0.39992  0.18925  0.18581  Biso   1.000  O
  O63      1.0000 0.45912  0.38684  0.03659  Biso   1.000  O
  O64      1.0000 0.24949  0.14808  0.85071  Biso   1.000  O
  Ir1      1.0000 0.54164  0.87072  0.58555  Biso   1.000  Ir
  Ir2      1.0000 0.07103  0.75491  0.75467  Biso   1.000  Ir
  Ir3      1.0000 0.54260  0.58607  0.86977  Biso   1.000  Ir
  Ir4      1.0000 0.35208  0.39593  0.93288  Biso   1.000  Ir
  Ir5      1.0000 0.91554  0.58576  0.86945  Biso   1.000  Ir
  Ir6      1.0000 0.24655  0.07743  0.79123  Biso   1.000  Ir
  Ir7      1.0000 0.56251  0.24565  0.24477  Biso   1.000  Ir
  Ir8      1.0000 0.65169  0.60382  0.06763  Biso   1.000  Ir
  Ir9      1.0000 0.46014  0.41419  0.12991  Biso   1.000  Ir
  Ir10     1.0000 0.75167  0.20691  0.92297  Biso   1.000  Ir
  Ir11     1.0000 0.24819  0.79321  0.07752  Biso   1.000  Ir
  Ir12     1.0000 0.37612  0.20694  0.92217  Biso   1.000  Ir
  Ir13     1.0000 0.45862  0.13134  0.41424  Biso   1.000  Ir
  Ir14     1.0000 0.64973  0.06889  0.60351  Biso   1.000  Ir
  Ir15     1.0000 0.62196  0.07721  0.79204  Biso   1.000  Ir
  Ir16     1.0000 0.75130  0.92175  0.20787  Biso   1.000  Ir
  Ir17     1.0000 0.97722  0.39589  0.93277  Biso   1.000  Ir
  Ir18     1.0000 0.43883  0.75581  0.75462  Biso   1.000  Ir
  Ir19     1.0000 0.02268  0.06784  0.60309  Biso   1.000  Ir
  Ir20     1.0000 0.08571  0.12974  0.41397  Biso   1.000  Ir
  Ir21     1.0000 0.62337  0.79239  0.07698  Biso   1.000  Ir
  Ir22     1.0000 0.93281  0.11850  0.11953  Biso   1.000  Ir
  Ir23     1.0000 0.97590  0.93164  0.39656  Biso   1.000  Ir
  Ir24     1.0000 0.92971  0.24509  0.24509  Biso   1.000  Ir
  Ir25     1.0000 0.02587  0.60397  0.06728  Biso   1.000  Ir
  Ir26     1.0000 0.08752  0.41446  0.12996  Biso   1.000  Ir
  Ir27     1.0000 0.06626  0.88076  0.88060  Biso   1.000  Ir
  Ir28     1.0000 0.91344  0.86964  0.58567  Biso   1.000  Ir
  Ir29     1.0000 0.37692  0.92310  0.20804  Biso   1.000  Ir
  Ir30     1.0000 0.35064  0.93346  0.39655  Biso   1.000  Ir
  Ir31     1.0000 0.30473  0.11951  0.11886  Biso   1.000  Ir
  Ir32     1.0000 0.69561  0.88112  0.88049  Biso   1.000  Ir
