data_image0
_cell_length_a       3.47109
_cell_length_b       6.01896
_cell_length_c       36.3427
_cell_angle_alpha    90
_cell_angle_beta     90
_cell_angle_gamma    90

_symmetry_space_group_name_H-M    "P 1"
_symmetry_int_tables_number       1

loop_
  _symmetry_equiv_pos_as_xyz
  'x, y, z'

loop_
  _atom_site_label
  _atom_site_occupancy
  _atom_site_fract_x
  _atom_site_fract_y
  _atom_site_fract_z
  _atom_site_thermal_displace_type
  _atom_site_B_iso_or_equiv
  _atom_site_type_symbol
  Ir1      1.0000 0.24037  0.49942  0.08832  Biso   1.000  Ir
  Ir2      1.0000 0.25963  0.00058  0.58832  Biso   1.000  Ir
  Ir3      1.0000 0.75963  0.49942  0.41168  Biso   1.000  Ir
  Ir4      1.0000 0.74037  0.00058  0.91168  Biso   1.000  Ir
  Ir5      1.0000 0.74037  0.99942  0.08832  Biso   1.000  Ir
  Ir6      1.0000 0.75963  0.50058  0.58832  Biso   1.000  Ir
  Ir7      1.0000 0.25963  0.99942  0.41168  Biso   1.000  Ir
  Ir8      1.0000 0.24037  0.50058  0.91168  Biso   1.000  Ir
  O1       1.0000 0.24046  0.16607  0.04224  Biso   1.000  O
  O2       1.0000 0.25954  0.33393  0.54224  Biso   1.000  O
  O3       1.0000 0.75954  0.16607  0.45776  Biso   1.000  O
  O4       1.0000 0.74046  0.33393  0.95776  Biso   1.000  O
  O5       1.0000 0.24043  0.16606  0.13492  Biso   1.000  O
  O6       1.0000 0.25957  0.33394  0.63492  Biso   1.000  O
  O7       1.0000 0.75957  0.16606  0.36508  Biso   1.000  O
  O8       1.0000 0.74043  0.33394  0.86508  Biso   1.000  O
  O9       1.0000 0.74046  0.66607  0.04224  Biso   1.000  O
  O10      1.0000 0.75954  0.83393  0.54224  Biso   1.000  O
  O11      1.0000 0.25954  0.66607  0.45776  Biso   1.000  O
  O12      1.0000 0.24046  0.83393  0.95776  Biso   1.000  O
  O13      1.0000 0.74043  0.66606  0.13492  Biso   1.000  O
  O14      1.0000 0.75957  0.83394  0.63492  Biso   1.000  O
  O15      1.0000 0.25957  0.66606  0.36508  Biso   1.000  O
  O16      1.0000 0.24043  0.83394  0.86508  Biso   1.000  O
