data_image0
_cell_length_a       12.5752
_cell_length_b       12.5752
_cell_length_c       42.1047
_cell_angle_alpha    90
_cell_angle_beta     90
_cell_angle_gamma    90

_symmetry_space_group_name_H-M    "P 1"
_symmetry_int_tables_number       1

loop_
  _symmetry_equiv_pos_as_xyz
  'x, y, z'

loop_
  _atom_site_label
  _atom_site_occupancy
  _atom_site_fract_x
  _atom_site_fract_y
  _atom_site_fract_z
  _atom_site_thermal_displace_type
  _atom_site_B_iso_or_equiv
  _atom_site_type_symbol
  O1       1.0000 0.62829  0.71938  0.16220  Biso   1.000  O
  O2       1.0000 0.37171  0.28062  0.16220  Biso   1.000  O
  O3       1.0000 0.28062  0.12829  0.41220  Biso   1.000  O
  O4       1.0000 0.71938  0.87171  0.41220  Biso   1.000  O
  O5       1.0000 0.37171  0.21938  0.08780  Biso   1.000  O
  O6       1.0000 0.62829  0.78062  0.08780  Biso   1.000  O
  O7       1.0000 0.21938  0.12829  0.33780  Biso   1.000  O
  O8       1.0000 0.78062  0.87171  0.33780  Biso   1.000  O
  O9       1.0000 0.37171  0.78062  0.08780  Biso   1.000  O
  O10      1.0000 0.62829  0.21938  0.08780  Biso   1.000  O
  O11      1.0000 0.21938  0.87171  0.33780  Biso   1.000  O
  O12      1.0000 0.78062  0.12829  0.33780  Biso   1.000  O
  O13      1.0000 0.62829  0.28062  0.16220  Biso   1.000  O
  O14      1.0000 0.37171  0.71938  0.16220  Biso   1.000  O
  O15      1.0000 0.28062  0.87171  0.41220  Biso   1.000  O
  O16      1.0000 0.71938  0.12829  0.41220  Biso   1.000  O
  O17      1.0000 0.37254  0.69108  0.36513  Biso   1.000  O
  O18      1.0000 0.62746  0.30892  0.36513  Biso   1.000  O
  O19      1.0000 0.80892  0.37254  0.11513  Biso   1.000  O
  O20      1.0000 0.19108  0.62746  0.11513  Biso   1.000  O
  O21      1.0000 0.12746  0.69108  0.38487  Biso   1.000  O
  O22      1.0000 0.87254  0.30892  0.38487  Biso   1.000  O
  O23      1.0000 0.19108  0.87254  0.13487  Biso   1.000  O
  O24      1.0000 0.80892  0.12746  0.13487  Biso   1.000  O
  O25      1.0000 0.12746  0.30892  0.38487  Biso   1.000  O
  O26      1.0000 0.87254  0.69108  0.38487  Biso   1.000  O
  O27      1.0000 0.19108  0.12746  0.13487  Biso   1.000  O
  O28      1.0000 0.80892  0.87254  0.13487  Biso   1.000  O
  O29      1.0000 0.37254  0.30892  0.36513  Biso   1.000  O
  O30      1.0000 0.62746  0.69108  0.36513  Biso   1.000  O
  O31      1.0000 0.80892  0.62746  0.11513  Biso   1.000  O
  O32      1.0000 0.19108  0.37254  0.11513  Biso   1.000  O
  O33      1.0000 0.37192  0.37192  0.00000  Biso   1.000  O
  O34      1.0000 0.62808  0.62808  0.00000  Biso   1.000  O
  O35      1.0000 0.62808  0.87192  0.25000  Biso   1.000  O
  O36      1.0000 0.37192  0.12808  0.25000  Biso   1.000  O
  O37      1.0000 0.62808  0.12808  0.25000  Biso   1.000  O
  O38      1.0000 0.37192  0.87192  0.25000  Biso   1.000  O
  O39      1.0000 0.37192  0.62808  0.00000  Biso   1.000  O
  O40      1.0000 0.62808  0.37192  0.00000  Biso   1.000  O
  O41      1.0000 0.50000  0.50000  0.16826  Biso   1.000  O
  O42      1.0000 0.50000  0.00000  0.41826  Biso   1.000  O
  O43      1.0000 0.50000  0.00000  0.08174  Biso   1.000  O
  O44      1.0000 0.00000  0.00000  0.33174  Biso   1.000  O
  O45      1.0000 0.50000  0.27134  0.29983  Biso   1.000  O
  O46      1.0000 0.50000  0.72866  0.29983  Biso   1.000  O
  O47      1.0000 0.22866  0.50000  0.04983  Biso   1.000  O
  O48      1.0000 0.77133  0.50000  0.04983  Biso   1.000  O
  O49      1.0000 0.00000  0.27134  0.45017  Biso   1.000  O
  O50      1.0000 0.00000  0.72866  0.45017  Biso   1.000  O
  O51      1.0000 0.77133  0.00000  0.20017  Biso   1.000  O
  O52      1.0000 0.22866  0.00000  0.20017  Biso   1.000  O
  O53      1.0000 0.50000  0.50000  0.33260  Biso   1.000  O
  O54      1.0000 0.00000  0.50000  0.08260  Biso   1.000  O
  O55      1.0000 0.00000  0.50000  0.41740  Biso   1.000  O
  O56      1.0000 0.00000  0.00000  0.16740  Biso   1.000  O
  O57      1.0000 0.50000  0.83295  0.02391  Biso   1.000  O
  O58      1.0000 0.50000  0.16705  0.02391  Biso   1.000  O
  O59      1.0000 0.16705  0.00000  0.27391  Biso   1.000  O
  O60      1.0000 0.83295  0.00000  0.27391  Biso   1.000  O
  O61      1.0000 0.50000  0.33295  0.22609  Biso   1.000  O
  O62      1.0000 0.50000  0.66705  0.22609  Biso   1.000  O
  O63      1.0000 0.33295  0.00000  0.47609  Biso   1.000  O
  O64      1.0000 0.66705  0.00000  0.47609  Biso   1.000  O
  O65      1.0000 0.12829  0.21938  0.66220  Biso   1.000  O
  O66      1.0000 0.87171  0.78062  0.66220  Biso   1.000  O
  O67      1.0000 0.78062  0.62829  0.91220  Biso   1.000  O
  O68      1.0000 0.21938  0.37171  0.91220  Biso   1.000  O
  O69      1.0000 0.87171  0.71938  0.58780  Biso   1.000  O
  O70      1.0000 0.12829  0.28062  0.58780  Biso   1.000  O
  O71      1.0000 0.71938  0.62829  0.83780  Biso   1.000  O
  O72      1.0000 0.28062  0.37171  0.83780  Biso   1.000  O
  O73      1.0000 0.87171  0.28062  0.58780  Biso   1.000  O
  O74      1.0000 0.12829  0.71938  0.58780  Biso   1.000  O
  O75      1.0000 0.71938  0.37171  0.83780  Biso   1.000  O
  O76      1.0000 0.28062  0.62829  0.83780  Biso   1.000  O
  O77      1.0000 0.12829  0.78062  0.66220  Biso   1.000  O
  O78      1.0000 0.87171  0.21938  0.66220  Biso   1.000  O
  O79      1.0000 0.78062  0.37171  0.91220  Biso   1.000  O
  O80      1.0000 0.21938  0.62829  0.91220  Biso   1.000  O
  O81      1.0000 0.87254  0.19108  0.86513  Biso   1.000  O
  O82      1.0000 0.12746  0.80892  0.86513  Biso   1.000  O
  O83      1.0000 0.30892  0.87254  0.61513  Biso   1.000  O
  O84      1.0000 0.69108  0.12746  0.61513  Biso   1.000  O
  O85      1.0000 0.62746  0.19108  0.88487  Biso   1.000  O
  O86      1.0000 0.37254  0.80892  0.88487  Biso   1.000  O
  O87      1.0000 0.69108  0.37254  0.63487  Biso   1.000  O
  O88      1.0000 0.30892  0.62746  0.63487  Biso   1.000  O
  O89      1.0000 0.62746  0.80892  0.88487  Biso   1.000  O
  O90      1.0000 0.37254  0.19108  0.88487  Biso   1.000  O
  O91      1.0000 0.69108  0.62746  0.63487  Biso   1.000  O
  O92      1.0000 0.30892  0.37254  0.63487  Biso   1.000  O
  O93      1.0000 0.87254  0.80892  0.86513  Biso   1.000  O
  O94      1.0000 0.12746  0.19108  0.86513  Biso   1.000  O
  O95      1.0000 0.30892  0.12746  0.61513  Biso   1.000  O
  O96      1.0000 0.69108  0.87254  0.61513  Biso   1.000  O
  O97      1.0000 0.87192  0.87192  0.50000  Biso   1.000  O
  O98      1.0000 0.12808  0.12808  0.50000  Biso   1.000  O
  O99      1.0000 0.12808  0.37192  0.75000  Biso   1.000  O
  O100     1.0000 0.87192  0.62808  0.75000  Biso   1.000  O
  O101     1.0000 0.12808  0.62808  0.75000  Biso   1.000  O
  O102     1.0000 0.87192  0.37192  0.75000  Biso   1.000  O
  O103     1.0000 0.87192  0.12808  0.50000  Biso   1.000  O
  O104     1.0000 0.12808  0.87192  0.50000  Biso   1.000  O
  O105     1.0000 0.00000  0.00000  0.66826  Biso   1.000  O
  O106     1.0000 0.00000  0.50000  0.91826  Biso   1.000  O
  O107     1.0000 0.00000  0.50000  0.58174  Biso   1.000  O
  O108     1.0000 0.50000  0.50000  0.83174  Biso   1.000  O
  O109     1.0000 0.00000  0.77133  0.79983  Biso   1.000  O
  O110     1.0000 0.00000  0.22866  0.79983  Biso   1.000  O
  O111     1.0000 0.72866  0.00000  0.54983  Biso   1.000  O
  O112     1.0000 0.27134  0.00000  0.54983  Biso   1.000  O
  O113     1.0000 0.50000  0.77133  0.95017  Biso   1.000  O
  O114     1.0000 0.50000  0.22866  0.95017  Biso   1.000  O
  O115     1.0000 0.27134  0.50000  0.70017  Biso   1.000  O
  O116     1.0000 0.72866  0.50000  0.70017  Biso   1.000  O
  O117     1.0000 0.00000  0.00000  0.83260  Biso   1.000  O
  O118     1.0000 0.50000  0.00000  0.58260  Biso   1.000  O
  O119     1.0000 0.50000  0.00000  0.91740  Biso   1.000  O
  O120     1.0000 0.50000  0.50000  0.66740  Biso   1.000  O
  O121     1.0000 0.00000  0.33295  0.52391  Biso   1.000  O
  O122     1.0000 0.00000  0.66705  0.52391  Biso   1.000  O
  O123     1.0000 0.66705  0.50000  0.77391  Biso   1.000  O
  O124     1.0000 0.33295  0.50000  0.77391  Biso   1.000  O
  O125     1.0000 0.00000  0.83295  0.72609  Biso   1.000  O
  O126     1.0000 0.00000  0.16705  0.72609  Biso   1.000  O
  O127     1.0000 0.83295  0.50000  0.97609  Biso   1.000  O
  O128     1.0000 0.16705  0.50000  0.97609  Biso   1.000  O
  Ir1      1.0000 0.50000  0.65323  0.34054  Biso   1.000  Ir
  Ir2      1.0000 0.50000  0.34677  0.34054  Biso   1.000  Ir
  Ir3      1.0000 0.84677  0.50000  0.09054  Biso   1.000  Ir
  Ir4      1.0000 0.15323  0.50000  0.09054  Biso   1.000  Ir
  Ir5      1.0000 0.00000  0.65323  0.40946  Biso   1.000  Ir
  Ir6      1.0000 0.00000  0.34677  0.40946  Biso   1.000  Ir
  Ir7      1.0000 0.15323  0.00000  0.15946  Biso   1.000  Ir
  Ir8      1.0000 0.84677  0.00000  0.15946  Biso   1.000  Ir
  Ir9      1.0000 0.28165  0.25000  0.12500  Biso   1.000  Ir
  Ir10     1.0000 0.71835  0.75000  0.12500  Biso   1.000  Ir
  Ir11     1.0000 0.75000  0.78165  0.37500  Biso   1.000  Ir
  Ir12     1.0000 0.25000  0.21835  0.37500  Biso   1.000  Ir
  Ir13     1.0000 0.71835  0.25000  0.12500  Biso   1.000  Ir
  Ir14     1.0000 0.28165  0.75000  0.12500  Biso   1.000  Ir
  Ir15     1.0000 0.75000  0.21835  0.37500  Biso   1.000  Ir
  Ir16     1.0000 0.25000  0.78165  0.37500  Biso   1.000  Ir
  Ir17     1.0000 0.50000  0.21434  0.25673  Biso   1.000  Ir
  Ir18     1.0000 0.50000  0.78566  0.25673  Biso   1.000  Ir
  Ir19     1.0000 0.28566  0.50000  0.00673  Biso   1.000  Ir
  Ir20     1.0000 0.71434  0.50000  0.00673  Biso   1.000  Ir
  Ir21     1.0000 0.00000  0.21434  0.49327  Biso   1.000  Ir
  Ir22     1.0000 0.00000  0.78566  0.49327  Biso   1.000  Ir
  Ir23     1.0000 0.71434  0.00000  0.24327  Biso   1.000  Ir
  Ir24     1.0000 0.28566  0.00000  0.24327  Biso   1.000  Ir
  Ir25     1.0000 0.50000  0.84874  0.07037  Biso   1.000  Ir
  Ir26     1.0000 0.50000  0.15126  0.07037  Biso   1.000  Ir
  Ir27     1.0000 0.15126  0.00000  0.32037  Biso   1.000  Ir
  Ir28     1.0000 0.84874  0.00000  0.32037  Biso   1.000  Ir
  Ir29     1.0000 0.50000  0.34874  0.17963  Biso   1.000  Ir
  Ir30     1.0000 0.50000  0.65126  0.17963  Biso   1.000  Ir
  Ir31     1.0000 0.34874  0.00000  0.42963  Biso   1.000  Ir
  Ir32     1.0000 0.65126  0.00000  0.42963  Biso   1.000  Ir
  Ir33     1.0000 0.00000  0.15323  0.84054  Biso   1.000  Ir
  Ir34     1.0000 0.00000  0.84677  0.84054  Biso   1.000  Ir
  Ir35     1.0000 0.34677  0.00000  0.59054  Biso   1.000  Ir
  Ir36     1.0000 0.65323  0.00000  0.59054  Biso   1.000  Ir
  Ir37     1.0000 0.50000  0.15323  0.90946  Biso   1.000  Ir
  Ir38     1.0000 0.50000  0.84677  0.90946  Biso   1.000  Ir
  Ir39     1.0000 0.65323  0.50000  0.65946  Biso   1.000  Ir
  Ir40     1.0000 0.34677  0.50000  0.65946  Biso   1.000  Ir
  Ir41     1.0000 0.78165  0.75000  0.62500  Biso   1.000  Ir
  Ir42     1.0000 0.21835  0.25000  0.62500  Biso   1.000  Ir
  Ir43     1.0000 0.25000  0.28165  0.87500  Biso   1.000  Ir
  Ir44     1.0000 0.75000  0.71835  0.87500  Biso   1.000  Ir
  Ir45     1.0000 0.21835  0.75000  0.62500  Biso   1.000  Ir
  Ir46     1.0000 0.78165  0.25000  0.62500  Biso   1.000  Ir
  Ir47     1.0000 0.25000  0.71835  0.87500  Biso   1.000  Ir
  Ir48     1.0000 0.75000  0.28165  0.87500  Biso   1.000  Ir
  Ir49     1.0000 0.00000  0.71434  0.75673  Biso   1.000  Ir
  Ir50     1.0000 0.00000  0.28566  0.75673  Biso   1.000  Ir
  Ir51     1.0000 0.78566  0.00000  0.50673  Biso   1.000  Ir
  Ir52     1.0000 0.21434  0.00000  0.50673  Biso   1.000  Ir
  Ir53     1.0000 0.50000  0.71434  0.99327  Biso   1.000  Ir
  Ir54     1.0000 0.50000  0.28566  0.99327  Biso   1.000  Ir
  Ir55     1.0000 0.21434  0.50000  0.74327  Biso   1.000  Ir
  Ir56     1.0000 0.78566  0.50000  0.74327  Biso   1.000  Ir
  Ir57     1.0000 0.00000  0.34874  0.57037  Biso   1.000  Ir
  Ir58     1.0000 0.00000  0.65126  0.57037  Biso   1.000  Ir
  Ir59     1.0000 0.65126  0.50000  0.82037  Biso   1.000  Ir
  Ir60     1.0000 0.34874  0.50000  0.82037  Biso   1.000  Ir
  Ir61     1.0000 0.00000  0.84874  0.67963  Biso   1.000  Ir
  Ir62     1.0000 0.00000  0.15126  0.67963  Biso   1.000  Ir
  Ir63     1.0000 0.84874  0.50000  0.92963  Biso   1.000  Ir
  Ir64     1.0000 0.15126  0.50000  0.92963  Biso   1.000  Ir
