data_image0
_cell_length_a       5.43128
_cell_length_b       5.43128
_cell_length_c       73.6137
_cell_angle_alpha    90
_cell_angle_beta     90
_cell_angle_gamma    120

_symmetry_space_group_name_H-M    "P 1"
_symmetry_int_tables_number       1

loop_
  _symmetry_equiv_pos_as_xyz
  'x, y, z'

loop_
  _atom_site_label
  _atom_site_occupancy
  _atom_site_fract_x
  _atom_site_fract_y
  _atom_site_fract_z
  _atom_site_thermal_displace_type
  _atom_site_B_iso_or_equiv
  _atom_site_type_symbol
  Ir1      1.0000 0.00000  0.00000  0.62499  Biso   1.000  Ir
  Ir2      1.0000 0.66667  0.33333  0.22500  Biso   1.000  Ir
  Ir3      1.0000 0.33333  0.66667  0.92499  Biso   1.000  Ir
  Ir4      1.0000 0.33333  0.66667  0.82500  Biso   1.000  Ir
  Ir5      1.0000 0.66667  0.33333  0.72500  Biso   1.000  Ir
  Ir6      1.0000 0.66667  0.33333  0.02500  Biso   1.000  Ir
  Ir7      1.0000 0.33333  0.66667  0.32500  Biso   1.000  Ir
  Ir8      1.0000 0.33333  0.66667  0.12499  Biso   1.000  Ir
  Ir9      1.0000 0.66667  0.33333  0.42500  Biso   1.000  Ir
  Ir10     1.0000 0.00000  0.00000  0.52500  Biso   1.000  Ir
  O1       1.0000 0.66667  0.33333  0.64850  Biso   1.000  O
  O2       1.0000 0.00000  0.00000  0.44853  Biso   1.000  O
  O3       1.0000 0.00000  0.00000  0.94851  Biso   1.000  O
  O4       1.0000 0.66667  0.33333  0.10147  Biso   1.000  O
  O5       1.0000 0.66667  0.33333  0.90146  Biso   1.000  O
  O6       1.0000 0.00000  0.00000  0.34852  Biso   1.000  O
  O7       1.0000 0.33333  0.66667  0.60147  Biso   1.000  O
  O8       1.0000 0.33333  0.66667  0.20149  Biso   1.000  O
  O9       1.0000 0.33333  0.66667  0.40149  Biso   1.000  O
  O10      1.0000 0.66667  0.33333  0.80148  Biso   1.000  O
  O11      1.0000 0.00000  0.00000  0.04852  Biso   1.000  O
  O12      1.0000 0.66667  0.33333  0.30148  Biso   1.000  O
  O13      1.0000 0.00000  0.00000  0.14852  Biso   1.000  O
  O14      1.0000 0.00000  0.00000  0.24852  Biso   1.000  O
  O15      1.0000 0.33333  0.66667  0.00149  Biso   1.000  O
  O16      1.0000 0.33333  0.66667  0.70150  Biso   1.000  O
  O17      1.0000 0.00000  0.00000  0.84853  Biso   1.000  O
  O18      1.0000 0.66667  0.33333  0.54853  Biso   1.000  O
  O19      1.0000 0.00000  0.00000  0.74852  Biso   1.000  O
  O20      1.0000 0.33333  0.66667  0.50149  Biso   1.000  O
