data_image0
_cell_length_a       7.43046
_cell_length_b       4.28992
_cell_length_c       62.7742
_cell_angle_alpha    90
_cell_angle_beta     90.3608
_cell_angle_gamma    90

_symmetry_space_group_name_H-M    "P 1"
_symmetry_int_tables_number       1

loop_
  _symmetry_equiv_pos_as_xyz
  'x, y, z'

loop_
  _atom_site_label
  _atom_site_occupancy
  _atom_site_fract_x
  _atom_site_fract_y
  _atom_site_fract_z
  _atom_site_thermal_displace_type
  _atom_site_B_iso_or_equiv
  _atom_site_type_symbol
  Ir1      1.0000 0.16666  0.50000  0.97223  Biso   1.000  Ir
  Ir2      1.0000 0.00000  0.00000  0.86114  Biso   1.000  Ir
  Ir3      1.0000 0.16666  0.50000  0.75000  Biso   1.000  Ir
  Ir4      1.0000 0.33334  0.00000  0.63886  Biso   1.000  Ir
  Ir5      1.0000 0.16666  0.50000  0.52777  Biso   1.000  Ir
  Ir6      1.0000 0.16666  0.50000  0.41667  Biso   1.000  Ir
  Ir7      1.0000 0.00000  0.00000  0.30555  Biso   1.000  Ir
  Ir8      1.0000 0.00000  0.00000  0.19445  Biso   1.000  Ir
  Ir9      1.0000 0.00000  0.00000  0.08336  Biso   1.000  Ir
  Ir10     1.0000 0.66666  0.00000  0.97223  Biso   1.000  Ir
  Ir11     1.0000 0.50000  0.50000  0.86114  Biso   1.000  Ir
  Ir12     1.0000 0.66666  0.00000  0.75000  Biso   1.000  Ir
  Ir13     1.0000 0.83334  0.50000  0.63886  Biso   1.000  Ir
  Ir14     1.0000 0.66666  0.00000  0.52777  Biso   1.000  Ir
  Ir15     1.0000 0.66666  0.00000  0.41667  Biso   1.000  Ir
  Ir16     1.0000 0.50000  0.50000  0.30555  Biso   1.000  Ir
  Ir17     1.0000 0.50000  0.50000  0.19445  Biso   1.000  Ir
  Ir18     1.0000 0.50000  0.50000  0.08336  Biso   1.000  Ir
  O1       1.0000 0.00000  0.00000  0.99969  Biso   1.000  O
  O2       1.0000 0.33332  0.00000  0.94472  Biso   1.000  O
  O3       1.0000 0.16669  0.50000  0.88859  Biso   1.000  O
  O4       1.0000 0.33335  0.00000  0.83362  Biso   1.000  O
  O5       1.0000 0.00000  0.00000  0.77748  Biso   1.000  O
  O6       1.0000 0.33332  0.00000  0.72253  Biso   1.000  O
  O7       1.0000 0.00000  0.00000  0.66638  Biso   1.000  O
  O8       1.0000 0.16667  0.50000  0.61139  Biso   1.000  O
  O9       1.0000 0.00000  0.00000  0.55526  Biso   1.000  O
  O10      1.0000 0.33337  0.00000  0.50029  Biso   1.000  O
  O11      1.0000 0.00000  0.00000  0.44418  Biso   1.000  O
  O12      1.0000 0.33332  0.00000  0.38919  Biso   1.000  O
  O13      1.0000 0.16665  0.50000  0.33305  Biso   1.000  O
  O14      1.0000 0.33331  0.00000  0.27806  Biso   1.000  O
  O15      1.0000 0.16669  0.50000  0.22193  Biso   1.000  O
  O16      1.0000 0.33334  0.00000  0.16695  Biso   1.000  O
  O17      1.0000 0.16668  0.50000  0.11082  Biso   1.000  O
  O18      1.0000 0.33331  0.00000  0.05583  Biso   1.000  O
  O19      1.0000 0.50000  0.50000  0.99969  Biso   1.000  O
  O20      1.0000 0.83332  0.50000  0.94472  Biso   1.000  O
  O21      1.0000 0.66669  0.00000  0.88859  Biso   1.000  O
  O22      1.0000 0.83335  0.50000  0.83362  Biso   1.000  O
  O23      1.0000 0.50000  0.50000  0.77748  Biso   1.000  O
  O24      1.0000 0.83332  0.50000  0.72253  Biso   1.000  O
  O25      1.0000 0.50000  0.50000  0.66638  Biso   1.000  O
  O26      1.0000 0.66667  0.00000  0.61139  Biso   1.000  O
  O27      1.0000 0.50000  0.50000  0.55526  Biso   1.000  O
  O28      1.0000 0.83337  0.50000  0.50029  Biso   1.000  O
  O29      1.0000 0.50000  0.50000  0.44418  Biso   1.000  O
  O30      1.0000 0.83332  0.50000  0.38919  Biso   1.000  O
  O31      1.0000 0.66665  0.00000  0.33305  Biso   1.000  O
  O32      1.0000 0.83331  0.50000  0.27806  Biso   1.000  O
  O33      1.0000 0.66669  0.00000  0.22193  Biso   1.000  O
  O34      1.0000 0.83334  0.50000  0.16695  Biso   1.000  O
  O35      1.0000 0.66668  0.00000  0.11082  Biso   1.000  O
  O36      1.0000 0.83331  0.50000  0.05583  Biso   1.000  O
