data_image0
_cell_length_a       17.8047
_cell_length_b       25.1768
_cell_length_c       10.4636
_cell_angle_alpha    90
_cell_angle_beta     90
_cell_angle_gamma    90

_symmetry_space_group_name_H-M    "P 1"
_symmetry_int_tables_number       1

loop_
  _symmetry_equiv_pos_as_xyz
  'x, y, z'

loop_
  _atom_site_label
  _atom_site_occupancy
  _atom_site_fract_x
  _atom_site_fract_y
  _atom_site_fract_z
  _atom_site_thermal_displace_type
  _atom_site_B_iso_or_equiv
  _atom_site_type_symbol
  O1       1.0000 0.73723  0.37722  0.00386  Biso   1.000  O
  O2       1.0000 0.26277  0.62278  0.50386  Biso   1.000  O
  O3       1.0000 0.26277  0.37722  0.49614  Biso   1.000  O
  O4       1.0000 0.73723  0.62278  0.99614  Biso   1.000  O
  O5       1.0000 0.26277  0.62278  0.99614  Biso   1.000  O
  O6       1.0000 0.73723  0.37722  0.49614  Biso   1.000  O
  O7       1.0000 0.73723  0.62278  0.50386  Biso   1.000  O
  O8       1.0000 0.26277  0.37722  0.00386  Biso   1.000  O
  O9       1.0000 0.91092  0.58615  0.99946  Biso   1.000  O
  O10      1.0000 0.08908  0.41385  0.49946  Biso   1.000  O
  O11      1.0000 0.08908  0.58615  0.50054  Biso   1.000  O
  O12      1.0000 0.91092  0.41385  0.00054  Biso   1.000  O
  O13      1.0000 0.08908  0.41385  0.00054  Biso   1.000  O
  O14      1.0000 0.91092  0.58615  0.50054  Biso   1.000  O
  O15      1.0000 0.91092  0.41385  0.49946  Biso   1.000  O
  O16      1.0000 0.08908  0.58615  0.99946  Biso   1.000  O
  O17      1.0000 0.00000  0.30261  0.99435  Biso   1.000  O
  O18      1.0000 0.00000  0.69739  0.49435  Biso   1.000  O
  O19      1.0000 0.00000  0.30261  0.50565  Biso   1.000  O
  O20      1.0000 0.00000  0.69739  0.00565  Biso   1.000  O
  O21      1.0000 0.91111  0.19181  0.49432  Biso   1.000  O
  O22      1.0000 0.08889  0.80819  0.99432  Biso   1.000  O
  O23      1.0000 0.08889  0.19181  0.00568  Biso   1.000  O
  O24      1.0000 0.91111  0.80819  0.50568  Biso   1.000  O
  O25      1.0000 0.08889  0.80819  0.50568  Biso   1.000  O
  O26      1.0000 0.91111  0.19181  0.00568  Biso   1.000  O
  O27      1.0000 0.91111  0.80819  0.99432  Biso   1.000  O
  O28      1.0000 0.08889  0.19181  0.49432  Biso   1.000  O
  O29      1.0000 0.25000  0.25000  0.00000  Biso   1.000  O
  O30      1.0000 0.25000  0.25000  0.50000  Biso   1.000  O
  O31      1.0000 0.75000  0.25000  0.50000  Biso   1.000  O
  O32      1.0000 0.75000  0.25000  0.00000  Biso   1.000  O
  O33      1.0000 0.18851  0.43072  0.25000  Biso   1.000  O
  O34      1.0000 0.81149  0.56928  0.75000  Biso   1.000  O
  O35      1.0000 0.81149  0.43072  0.25000  Biso   1.000  O
  O36      1.0000 0.18851  0.56928  0.75000  Biso   1.000  O
  O37      1.0000 0.77813  0.50000  0.00000  Biso   1.000  O
  O38      1.0000 0.22187  0.50000  0.50000  Biso   1.000  O
  O39      1.0000 0.22187  0.50000  0.00000  Biso   1.000  O
  O40      1.0000 0.77813  0.50000  0.50000  Biso   1.000  O
  O41      1.0000 0.30198  0.68758  0.25000  Biso   1.000  O
  O42      1.0000 0.69802  0.31241  0.75000  Biso   1.000  O
  O43      1.0000 0.69802  0.68758  0.25000  Biso   1.000  O
  O44      1.0000 0.30198  0.31241  0.75000  Biso   1.000  O
  O45      1.0000 0.00000  0.77590  0.25000  Biso   1.000  O
  O46      1.0000 0.00000  0.22410  0.75000  Biso   1.000  O
  O47      1.0000 0.00000  0.62072  0.25000  Biso   1.000  O
  O48      1.0000 0.00000  0.37928  0.75000  Biso   1.000  O
  O49      1.0000 0.23723  0.87722  0.00386  Biso   1.000  O
  O50      1.0000 0.76277  0.12278  0.50386  Biso   1.000  O
  O51      1.0000 0.76277  0.87722  0.49614  Biso   1.000  O
  O52      1.0000 0.23723  0.12278  0.99614  Biso   1.000  O
  O53      1.0000 0.76277  0.12278  0.99614  Biso   1.000  O
  O54      1.0000 0.23723  0.87722  0.49614  Biso   1.000  O
  O55      1.0000 0.23723  0.12278  0.50386  Biso   1.000  O
  O56      1.0000 0.76277  0.87722  0.00386  Biso   1.000  O
  O57      1.0000 0.41092  0.08615  0.99946  Biso   1.000  O
  O58      1.0000 0.58908  0.91385  0.49946  Biso   1.000  O
  O59      1.0000 0.58908  0.08615  0.50054  Biso   1.000  O
  O60      1.0000 0.41092  0.91385  0.00054  Biso   1.000  O
  O61      1.0000 0.58908  0.91385  0.00054  Biso   1.000  O
  O62      1.0000 0.41092  0.08615  0.50054  Biso   1.000  O
  O63      1.0000 0.41092  0.91385  0.49946  Biso   1.000  O
  O64      1.0000 0.58908  0.08615  0.99946  Biso   1.000  O
  O65      1.0000 0.50000  0.80261  0.99435  Biso   1.000  O
  O66      1.0000 0.50000  0.19739  0.49435  Biso   1.000  O
  O67      1.0000 0.50000  0.80261  0.50565  Biso   1.000  O
  O68      1.0000 0.50000  0.19739  0.00565  Biso   1.000  O
  O69      1.0000 0.41111  0.69181  0.49432  Biso   1.000  O
  O70      1.0000 0.58889  0.30819  0.99432  Biso   1.000  O
  O71      1.0000 0.58889  0.69181  0.00568  Biso   1.000  O
  O72      1.0000 0.41111  0.30819  0.50568  Biso   1.000  O
  O73      1.0000 0.58889  0.30819  0.50568  Biso   1.000  O
  O74      1.0000 0.41111  0.69181  0.00568  Biso   1.000  O
  O75      1.0000 0.41111  0.30819  0.99432  Biso   1.000  O
  O76      1.0000 0.58889  0.69181  0.49432  Biso   1.000  O
  O77      1.0000 0.75000  0.75000  0.00000  Biso   1.000  O
  O78      1.0000 0.75000  0.75000  0.50000  Biso   1.000  O
  O79      1.0000 0.25000  0.75000  0.50000  Biso   1.000  O
  O80      1.0000 0.25000  0.75000  0.00000  Biso   1.000  O
  O81      1.0000 0.68851  0.93072  0.25000  Biso   1.000  O
  O82      1.0000 0.31149  0.06928  0.75000  Biso   1.000  O
  O83      1.0000 0.31149  0.93072  0.25000  Biso   1.000  O
  O84      1.0000 0.68851  0.06928  0.75000  Biso   1.000  O
  O85      1.0000 0.27813  0.00000  0.00000  Biso   1.000  O
  O86      1.0000 0.72187  0.00000  0.50000  Biso   1.000  O
  O87      1.0000 0.72187  0.00000  0.00000  Biso   1.000  O
  O88      1.0000 0.27813  0.00000  0.50000  Biso   1.000  O
  O89      1.0000 0.80198  0.18759  0.25000  Biso   1.000  O
  O90      1.0000 0.19802  0.81241  0.75000  Biso   1.000  O
  O91      1.0000 0.19802  0.18759  0.25000  Biso   1.000  O
  O92      1.0000 0.80198  0.81241  0.75000  Biso   1.000  O
  O93      1.0000 0.50000  0.27590  0.25000  Biso   1.000  O
  O94      1.0000 0.50000  0.72410  0.75000  Biso   1.000  O
  O95      1.0000 0.50000  0.12072  0.25000  Biso   1.000  O
  O96      1.0000 0.50000  0.87928  0.75000  Biso   1.000  O
  Ir1      1.0000 0.80972  0.56989  0.93646  Biso   1.000  Ir
  Ir2      1.0000 0.19028  0.43011  0.43646  Biso   1.000  Ir
  Ir3      1.0000 0.19028  0.56989  0.56354  Biso   1.000  Ir
  Ir4      1.0000 0.80972  0.43011  0.06354  Biso   1.000  Ir
  Ir5      1.0000 0.19028  0.43011  0.06354  Biso   1.000  Ir
  Ir6      1.0000 0.80972  0.56989  0.56354  Biso   1.000  Ir
  Ir7      1.0000 0.80972  0.43011  0.43646  Biso   1.000  Ir
  Ir8      1.0000 0.19028  0.56989  0.93646  Biso   1.000  Ir
  Ir9      1.0000 0.69362  0.68841  0.06312  Biso   1.000  Ir
  Ir10     1.0000 0.30638  0.31159  0.56312  Biso   1.000  Ir
  Ir11     1.0000 0.30638  0.68841  0.43688  Biso   1.000  Ir
  Ir12     1.0000 0.69362  0.31159  0.93688  Biso   1.000  Ir
  Ir13     1.0000 0.30638  0.31159  0.93688  Biso   1.000  Ir
  Ir14     1.0000 0.69362  0.68841  0.43688  Biso   1.000  Ir
  Ir15     1.0000 0.69362  0.31159  0.56312  Biso   1.000  Ir
  Ir16     1.0000 0.30638  0.68841  0.06312  Biso   1.000  Ir
  Ir17     1.0000 0.00000  0.37718  0.56335  Biso   1.000  Ir
  Ir18     1.0000 0.00000  0.62282  0.06335  Biso   1.000  Ir
  Ir19     1.0000 0.00000  0.37718  0.93665  Biso   1.000  Ir
  Ir20     1.0000 0.00000  0.62282  0.43665  Biso   1.000  Ir
  Ir21     1.0000 0.00000  0.22778  0.56256  Biso   1.000  Ir
  Ir22     1.0000 0.00000  0.77222  0.06256  Biso   1.000  Ir
  Ir23     1.0000 0.00000  0.22778  0.93744  Biso   1.000  Ir
  Ir24     1.0000 0.00000  0.77222  0.43744  Biso   1.000  Ir
  Ir25     1.0000 0.30972  0.06989  0.93646  Biso   1.000  Ir
  Ir26     1.0000 0.69028  0.93011  0.43646  Biso   1.000  Ir
  Ir27     1.0000 0.69028  0.06989  0.56354  Biso   1.000  Ir
  Ir28     1.0000 0.30972  0.93011  0.06354  Biso   1.000  Ir
  Ir29     1.0000 0.69028  0.93011  0.06354  Biso   1.000  Ir
  Ir30     1.0000 0.30972  0.06989  0.56354  Biso   1.000  Ir
  Ir31     1.0000 0.30972  0.93011  0.43646  Biso   1.000  Ir
  Ir32     1.0000 0.69028  0.06989  0.93646  Biso   1.000  Ir
  Ir33     1.0000 0.19362  0.18840  0.06312  Biso   1.000  Ir
  Ir34     1.0000 0.80638  0.81159  0.56312  Biso   1.000  Ir
  Ir35     1.0000 0.80638  0.18840  0.43688  Biso   1.000  Ir
  Ir36     1.0000 0.19362  0.81159  0.93688  Biso   1.000  Ir
  Ir37     1.0000 0.80638  0.81159  0.93688  Biso   1.000  Ir
  Ir38     1.0000 0.19362  0.18840  0.43688  Biso   1.000  Ir
  Ir39     1.0000 0.19362  0.81159  0.56312  Biso   1.000  Ir
  Ir40     1.0000 0.80638  0.18840  0.06312  Biso   1.000  Ir
  Ir41     1.0000 0.50000  0.87718  0.56335  Biso   1.000  Ir
  Ir42     1.0000 0.50000  0.12282  0.06335  Biso   1.000  Ir
  Ir43     1.0000 0.50000  0.87718  0.93665  Biso   1.000  Ir
  Ir44     1.0000 0.50000  0.12282  0.43665  Biso   1.000  Ir
  Ir45     1.0000 0.50000  0.72778  0.56256  Biso   1.000  Ir
  Ir46     1.0000 0.50000  0.27222  0.06256  Biso   1.000  Ir
  Ir47     1.0000 0.50000  0.72778  0.93744  Biso   1.000  Ir
  Ir48     1.0000 0.50000  0.27222  0.43744  Biso   1.000  Ir
