data_image0
_cell_length_a       8.14821
_cell_length_b       16.3752
_cell_length_c       4.1474
_cell_angle_alpha    90
_cell_angle_beta     90
_cell_angle_gamma    90

_symmetry_space_group_name_H-M    "P 1"
_symmetry_int_tables_number       1

loop_
  _symmetry_equiv_pos_as_xyz
  'x, y, z'

loop_
  _atom_site_label
  _atom_site_occupancy
  _atom_site_fract_x
  _atom_site_fract_y
  _atom_site_fract_z
  _atom_site_thermal_displace_type
  _atom_site_B_iso_or_equiv
  _atom_site_type_symbol
  Ir1      1.0000 0.62930  0.61177  0.21874  Biso   1.000  Ir
  Ir2      1.0000 0.87070  0.38822  0.71874  Biso   1.000  Ir
  Ir3      1.0000 0.37070  0.11177  0.78126  Biso   1.000  Ir
  Ir4      1.0000 0.12930  0.88823  0.28126  Biso   1.000  Ir
  Ir5      1.0000 0.37070  0.38822  0.78126  Biso   1.000  Ir
  Ir6      1.0000 0.12930  0.61177  0.28126  Biso   1.000  Ir
  Ir7      1.0000 0.62930  0.88823  0.21874  Biso   1.000  Ir
  Ir8      1.0000 0.87070  0.11177  0.71874  Biso   1.000  Ir
  O1       1.0000 0.60809  0.25000  0.64227  Biso   1.000  O
  O2       1.0000 0.89191  0.75000  0.14227  Biso   1.000  O
  O3       1.0000 0.39191  0.75000  0.35773  Biso   1.000  O
  O4       1.0000 0.10809  0.25000  0.85773  Biso   1.000  O
  O5       1.0000 0.90073  0.25000  0.16422  Biso   1.000  O
  O6       1.0000 0.59927  0.75000  0.66422  Biso   1.000  O
  O7       1.0000 0.09927  0.75000  0.83578  Biso   1.000  O
  O8       1.0000 0.40073  0.25000  0.33578  Biso   1.000  O
  O9       1.0000 0.62533  0.06733  0.23988  Biso   1.000  O
  O10      1.0000 0.87467  0.93267  0.73988  Biso   1.000  O
  O11      1.0000 0.37467  0.56733  0.76012  Biso   1.000  O
  O12      1.0000 0.12533  0.43267  0.26012  Biso   1.000  O
  O13      1.0000 0.37467  0.93267  0.76012  Biso   1.000  O
  O14      1.0000 0.12533  0.06733  0.26012  Biso   1.000  O
  O15      1.0000 0.62533  0.43267  0.23988  Biso   1.000  O
  O16      1.0000 0.87467  0.56733  0.73988  Biso   1.000  O
