data_image0
_cell_length_a       8.13768
_cell_length_b       4.12938
_cell_length_c       16.4611
_cell_angle_alpha    90
_cell_angle_beta     90
_cell_angle_gamma    90

_symmetry_space_group_name_H-M    "P 1"
_symmetry_int_tables_number       1

loop_
  _symmetry_equiv_pos_as_xyz
  'x, y, z'

loop_
  _atom_site_label
  _atom_site_occupancy
  _atom_site_fract_x
  _atom_site_fract_y
  _atom_site_fract_z
  _atom_site_thermal_displace_type
  _atom_site_B_iso_or_equiv
  _atom_site_type_symbol
  Ir1      1.0000 0.62998  0.21874  0.13509  Biso   1.000  Ir
  Ir2      1.0000 0.37002  0.78126  0.63509  Biso   1.000  Ir
  Ir3      1.0000 0.12998  0.28126  0.13509  Biso   1.000  Ir
  Ir4      1.0000 0.87002  0.71874  0.63509  Biso   1.000  Ir
  Ir5      1.0000 0.62692  0.21907  0.85919  Biso   1.000  Ir
  Ir6      1.0000 0.37307  0.78093  0.35919  Biso   1.000  Ir
  Ir7      1.0000 0.12693  0.28093  0.85919  Biso   1.000  Ir
  Ir8      1.0000 0.87308  0.71907  0.35919  Biso   1.000  Ir
  O1       1.0000 0.88994  0.14036  0.99729  Biso   1.000  O
  O2       1.0000 0.11006  0.85964  0.49729  Biso   1.000  O
  O3       1.0000 0.38994  0.35964  0.99729  Biso   1.000  O
  O4       1.0000 0.61006  0.64036  0.49729  Biso   1.000  O
  O5       1.0000 0.90101  0.16643  0.49716  Biso   1.000  O
  O6       1.0000 0.09899  0.83357  0.99716  Biso   1.000  O
  O7       1.0000 0.40101  0.33357  0.49716  Biso   1.000  O
  O8       1.0000 0.59899  0.66643  0.99716  Biso   1.000  O
  O9       1.0000 0.62373  0.24123  0.68051  Biso   1.000  O
  O10      1.0000 0.37627  0.75877  0.18051  Biso   1.000  O
  O11      1.0000 0.12373  0.25877  0.68051  Biso   1.000  O
  O12      1.0000 0.87627  0.74123  0.18051  Biso   1.000  O
  O13      1.0000 0.62706  0.24138  0.31377  Biso   1.000  O
  O14      1.0000 0.37294  0.75862  0.81377  Biso   1.000  O
  O15      1.0000 0.12706  0.25862  0.31377  Biso   1.000  O
  O16      1.0000 0.87294  0.74138  0.81377  Biso   1.000  O
