data_image0
_cell_length_a       24.2433
_cell_length_b       9.21286
_cell_length_c       11.0482
_cell_angle_alpha    90
_cell_angle_beta     90
_cell_angle_gamma    90

_symmetry_space_group_name_H-M    "P 1"
_symmetry_int_tables_number       1

loop_
  _symmetry_equiv_pos_as_xyz
  'x, y, z'

loop_
  _atom_site_label
  _atom_site_occupancy
  _atom_site_fract_x
  _atom_site_fract_y
  _atom_site_fract_z
  _atom_site_thermal_displace_type
  _atom_site_B_iso_or_equiv
  _atom_site_type_symbol
  O1       1.0000 0.47661  0.76696  0.31890  Biso   1.000  O
  O2       1.0000 0.02339  0.23304  0.31890  Biso   1.000  O
  O3       1.0000 0.52340  0.76696  0.68110  Biso   1.000  O
  O4       1.0000 0.97660  0.23304  0.68110  Biso   1.000  O
  O5       1.0000 0.52340  0.23304  0.68110  Biso   1.000  O
  O6       1.0000 0.97660  0.76696  0.68110  Biso   1.000  O
  O7       1.0000 0.47661  0.23304  0.31890  Biso   1.000  O
  O8       1.0000 0.02339  0.76696  0.31890  Biso   1.000  O
  O9       1.0000 0.55384  0.50000  0.23655  Biso   1.000  O
  O10      1.0000 0.94616  0.50000  0.23655  Biso   1.000  O
  O11      1.0000 0.44616  0.50000  0.76345  Biso   1.000  O
  O12      1.0000 0.05384  0.50000  0.76345  Biso   1.000  O
  O13      1.0000 0.59627  0.72362  0.44036  Biso   1.000  O
  O14      1.0000 0.90373  0.27638  0.44036  Biso   1.000  O
  O15      1.0000 0.40373  0.72362  0.55964  Biso   1.000  O
  O16      1.0000 0.09627  0.27638  0.55964  Biso   1.000  O
  O17      1.0000 0.40373  0.27638  0.55964  Biso   1.000  O
  O18      1.0000 0.09627  0.72362  0.55964  Biso   1.000  O
  O19      1.0000 0.59627  0.27638  0.44036  Biso   1.000  O
  O20      1.0000 0.90373  0.72362  0.44036  Biso   1.000  O
  O21      1.0000 0.58638  0.82528  0.16426  Biso   1.000  O
  O22      1.0000 0.91362  0.17472  0.16426  Biso   1.000  O
  O23      1.0000 0.41362  0.82528  0.83574  Biso   1.000  O
  O24      1.0000 0.08638  0.17472  0.83574  Biso   1.000  O
  O25      1.0000 0.41362  0.17472  0.83574  Biso   1.000  O
  O26      1.0000 0.08638  0.82528  0.83574  Biso   1.000  O
  O27      1.0000 0.58638  0.17472  0.16426  Biso   1.000  O
  O28      1.0000 0.91362  0.82528  0.16426  Biso   1.000  O
  O29      1.0000 0.65389  0.82520  0.68678  Biso   1.000  O
  O30      1.0000 0.84611  0.17480  0.68678  Biso   1.000  O
  O31      1.0000 0.34611  0.82520  0.31322  Biso   1.000  O
  O32      1.0000 0.15389  0.17480  0.31322  Biso   1.000  O
  O33      1.0000 0.34611  0.17480  0.31322  Biso   1.000  O
  O34      1.0000 0.15389  0.82520  0.31322  Biso   1.000  O
  O35      1.0000 0.65389  0.17480  0.68678  Biso   1.000  O
  O36      1.0000 0.84611  0.82520  0.68678  Biso   1.000  O
  O37      1.0000 0.60889  0.50000  0.66271  Biso   1.000  O
  O38      1.0000 0.89111  0.50000  0.66271  Biso   1.000  O
  O39      1.0000 0.39110  0.50000  0.33729  Biso   1.000  O
  O40      1.0000 0.10890  0.50000  0.33729  Biso   1.000  O
  O41      1.0000 0.50000  0.00000  0.00000  Biso   1.000  O
  O42      1.0000 0.00000  0.00000  0.00000  Biso   1.000  O
  O43      1.0000 0.62861  0.00000  0.93290  Biso   1.000  O
  O44      1.0000 0.87139  0.00000  0.93290  Biso   1.000  O
  O45      1.0000 0.37139  0.00000  0.06710  Biso   1.000  O
  O46      1.0000 0.12861  0.00000  0.06710  Biso   1.000  O
  O47      1.0000 0.75000  0.00000  0.82225  Biso   1.000  O
  O48      1.0000 0.25000  0.00000  0.17775  Biso   1.000  O
  Ir1      1.0000 0.55323  0.70384  0.29023  Biso   1.000  Ir
  Ir2      1.0000 0.94677  0.29616  0.29023  Biso   1.000  Ir
  Ir3      1.0000 0.44677  0.70384  0.70977  Biso   1.000  Ir
  Ir4      1.0000 0.05323  0.29616  0.70977  Biso   1.000  Ir
  Ir5      1.0000 0.44677  0.29616  0.70977  Biso   1.000  Ir
  Ir6      1.0000 0.05323  0.70384  0.70977  Biso   1.000  Ir
  Ir7      1.0000 0.55323  0.29616  0.29023  Biso   1.000  Ir
  Ir8      1.0000 0.94677  0.70384  0.29023  Biso   1.000  Ir
  Ir9      1.0000 0.59565  0.70382  0.61785  Biso   1.000  Ir
  Ir10     1.0000 0.90435  0.29618  0.61785  Biso   1.000  Ir
  Ir11     1.0000 0.40435  0.70382  0.38215  Biso   1.000  Ir
  Ir12     1.0000 0.09565  0.29618  0.38215  Biso   1.000  Ir
  Ir13     1.0000 0.40435  0.29618  0.38215  Biso   1.000  Ir
  Ir14     1.0000 0.09565  0.70382  0.38215  Biso   1.000  Ir
  Ir15     1.0000 0.59565  0.29618  0.61785  Biso   1.000  Ir
  Ir16     1.0000 0.90435  0.70382  0.61785  Biso   1.000  Ir
  Ir17     1.0000 0.57501  0.00000  0.06460  Biso   1.000  Ir
  Ir18     1.0000 0.92499  0.00000  0.06460  Biso   1.000  Ir
  Ir19     1.0000 0.42499  0.00000  0.93540  Biso   1.000  Ir
  Ir20     1.0000 0.07501  0.00000  0.93540  Biso   1.000  Ir
  Ir21     1.0000 0.17130  0.00000  0.21768  Biso   1.000  Ir
  Ir22     1.0000 0.32870  0.00000  0.21768  Biso   1.000  Ir
  Ir23     1.0000 0.82870  0.00000  0.78232  Biso   1.000  Ir
  Ir24     1.0000 0.67130  0.00000  0.78232  Biso   1.000  Ir
