data_image0
_cell_length_a       5.3618
_cell_length_b       5.3618
_cell_length_c       34.8813
_cell_angle_alpha    90
_cell_angle_beta     90
_cell_angle_gamma    120

_symmetry_space_group_name_H-M    "P 1"
_symmetry_int_tables_number       1

loop_
  _symmetry_equiv_pos_as_xyz
  'x, y, z'

loop_
  _atom_site_label
  _atom_site_occupancy
  _atom_site_fract_x
  _atom_site_fract_y
  _atom_site_fract_z
  _atom_site_thermal_displace_type
  _atom_site_B_iso_or_equiv
  _atom_site_type_symbol
  Ir1      1.0000 0.66667  0.33333  0.05003  Biso   1.000  Ir
  Ir2      1.0000 0.66667  0.33333  0.24999  Biso   1.000  Ir
  Ir3      1.0000 0.66667  0.33333  0.45001  Biso   1.000  Ir
  Ir4      1.0000 0.33333  0.66667  0.65004  Biso   1.000  Ir
  Ir5      1.0000 0.33333  0.66667  0.85001  Biso   1.000  Ir
  O1       1.0000 0.00000  0.00000  0.00045  Biso   1.000  O
  O2       1.0000 0.33333  0.66667  0.09949  Biso   1.000  O
  O3       1.0000 0.00000  0.00000  0.20044  Biso   1.000  O
  O4       1.0000 0.33333  0.66667  0.29950  Biso   1.000  O
  O5       1.0000 0.00000  0.00000  0.40047  Biso   1.000  O
  O6       1.0000 0.33333  0.66667  0.49952  Biso   1.000  O
  O7       1.0000 0.00000  0.00000  0.60050  Biso   1.000  O
  O8       1.0000 0.66667  0.33333  0.69954  Biso   1.000  O
  O9       1.0000 0.00000  0.00000  0.80050  Biso   1.000  O
  O10      1.0000 0.66667  0.33333  0.89950  Biso   1.000  O
