data_image0
_cell_length_a       11.9961
_cell_length_b       10.5546
_cell_length_c       4.58422
_cell_angle_alpha    90
_cell_angle_beta     94.2635
_cell_angle_gamma    90

_symmetry_space_group_name_H-M    "P 1"
_symmetry_int_tables_number       1

loop_
  _symmetry_equiv_pos_as_xyz
  'x, y, z'

loop_
  _atom_site_label
  _atom_site_occupancy
  _atom_site_fract_x
  _atom_site_fract_y
  _atom_site_fract_z
  _atom_site_thermal_displace_type
  _atom_site_B_iso_or_equiv
  _atom_site_type_symbol
  O1       1.0000 0.41859  0.71911  0.67491  Biso   1.000  O
  O2       1.0000 0.58141  0.71911  0.32509  Biso   1.000  O
  O3       1.0000 0.21919  0.91902  0.46019  Biso   1.000  O
  O4       1.0000 0.78081  0.91902  0.53981  Biso   1.000  O
  O5       1.0000 0.50000  0.99936  0.50000  Biso   1.000  O
  O6       1.0000 0.41839  0.28061  0.16659  Biso   1.000  O
  O7       1.0000 0.58161  0.28061  0.83341  Biso   1.000  O
  O8       1.0000 0.21679  0.08064  0.96131  Biso   1.000  O
  O9       1.0000 0.78321  0.08064  0.03869  Biso   1.000  O
  O10      1.0000 0.50000  0.00120  0.00000  Biso   1.000  O
  O11      1.0000 0.91859  0.21911  0.67491  Biso   1.000  O
  O12      1.0000 0.08141  0.21911  0.32509  Biso   1.000  O
  O13      1.0000 0.71919  0.41902  0.46019  Biso   1.000  O
  O14      1.0000 0.28081  0.41902  0.53981  Biso   1.000  O
  O15      1.0000 0.00000  0.49936  0.50000  Biso   1.000  O
  O16      1.0000 0.91839  0.78061  0.16659  Biso   1.000  O
  O17      1.0000 0.08161  0.78061  0.83341  Biso   1.000  O
  O18      1.0000 0.71679  0.58064  0.96131  Biso   1.000  O
  O19      1.0000 0.28321  0.58064  0.03869  Biso   1.000  O
  O20      1.0000 0.00000  0.50120  0.00000  Biso   1.000  O
  Ir1      1.0000 0.33773  0.16276  0.58630  Biso   1.000  Ir
  Ir2      1.0000 0.66227  0.16276  0.41370  Biso   1.000  Ir
  Ir3      1.0000 0.50000  0.49966  0.00000  Biso   1.000  Ir
  Ir4      1.0000 0.33808  0.83775  0.08557  Biso   1.000  Ir
  Ir5      1.0000 0.66192  0.83775  0.91443  Biso   1.000  Ir
  Ir6      1.0000 0.83773  0.66276  0.58630  Biso   1.000  Ir
  Ir7      1.0000 0.16227  0.66276  0.41370  Biso   1.000  Ir
  Ir8      1.0000 0.00000  0.99966  0.00000  Biso   1.000  Ir
  Ir9      1.0000 0.83808  0.33775  0.08557  Biso   1.000  Ir
  Ir10     1.0000 0.16192  0.33775  0.91443  Biso   1.000  Ir
