data_image0
_cell_length_a       10.4997
_cell_length_b       10.4997
_cell_length_c       10.8293
_cell_angle_alpha    90
_cell_angle_beta     90
_cell_angle_gamma    120

_symmetry_space_group_name_H-M    "P 1"
_symmetry_int_tables_number       1

loop_
  _symmetry_equiv_pos_as_xyz
  'x, y, z'

loop_
  _atom_site_label
  _atom_site_occupancy
  _atom_site_fract_x
  _atom_site_fract_y
  _atom_site_fract_z
  _atom_site_thermal_displace_type
  _atom_site_B_iso_or_equiv
  _atom_site_type_symbol
  O1       1.0000 0.17294  0.34754  0.59962  Biso   1.000  O
  O2       1.0000 0.65246  0.82540  0.59962  Biso   1.000  O
  O3       1.0000 0.17460  0.82706  0.59962  Biso   1.000  O
  O4       1.0000 0.82706  0.65246  0.40038  Biso   1.000  O
  O5       1.0000 0.34754  0.17460  0.40038  Biso   1.000  O
  O6       1.0000 0.82540  0.17294  0.40038  Biso   1.000  O
  O7       1.0000 0.33333  0.16667  0.66667  Biso   1.000  O
  O8       1.0000 0.16667  0.83333  0.33333  Biso   1.000  O
  O9       1.0000 0.16667  0.33333  0.33333  Biso   1.000  O
  O10      1.0000 0.33333  0.16667  0.16667  Biso   1.000  O
  O11      1.0000 0.83333  0.16667  0.16667  Biso   1.000  O
  O12      1.0000 0.50000  0.00000  0.50000  Biso   1.000  O
  O13      1.0000 0.83961  0.68087  0.93295  Biso   1.000  O
  O14      1.0000 0.31913  0.15874  0.93295  Biso   1.000  O
  O15      1.0000 0.84126  0.16039  0.93295  Biso   1.000  O
  O16      1.0000 0.49373  0.98579  0.73371  Biso   1.000  O
  O17      1.0000 0.01421  0.50793  0.73371  Biso   1.000  O
  O18      1.0000 0.49207  0.50628  0.73371  Biso   1.000  O
  O19      1.0000 0.00000  0.50000  0.00000  Biso   1.000  O
  O20      1.0000 0.83333  0.16667  0.66667  Biso   1.000  O
  O21      1.0000 0.83333  0.66667  0.66667  Biso   1.000  O
  O22      1.0000 0.00000  0.50000  0.50000  Biso   1.000  O
  O23      1.0000 0.50000  0.50000  0.50000  Biso   1.000  O
  O24      1.0000 0.16667  0.33333  0.83333  Biso   1.000  O
  O25      1.0000 0.50628  0.01421  0.26629  Biso   1.000  O
  O26      1.0000 0.98579  0.49207  0.26629  Biso   1.000  O
  O27      1.0000 0.50793  0.49373  0.26629  Biso   1.000  O
  O28      1.0000 0.16039  0.31913  0.06705  Biso   1.000  O
  O29      1.0000 0.68087  0.84126  0.06705  Biso   1.000  O
  O30      1.0000 0.15874  0.83961  0.06705  Biso   1.000  O
  O31      1.0000 0.66667  0.83333  0.33333  Biso   1.000  O
  O32      1.0000 0.50000  0.50000  0.00000  Biso   1.000  O
  O33      1.0000 0.50000  0.00000  0.00000  Biso   1.000  O
  O34      1.0000 0.66667  0.83333  0.83333  Biso   1.000  O
  O35      1.0000 0.16667  0.83333  0.83333  Biso   1.000  O
  O36      1.0000 0.83333  0.66667  0.16667  Biso   1.000  O
  Ir1      1.0000 0.99268  0.37092  0.61812  Biso   1.000  Ir
  Ir2      1.0000 0.62908  0.62176  0.61812  Biso   1.000  Ir
  Ir3      1.0000 0.37824  0.00732  0.61812  Biso   1.000  Ir
  Ir4      1.0000 0.00732  0.62908  0.38188  Biso   1.000  Ir
  Ir5      1.0000 0.37092  0.37824  0.38188  Biso   1.000  Ir
  Ir6      1.0000 0.62176  0.99268  0.38188  Biso   1.000  Ir
  Ir7      1.0000 0.65935  0.70425  0.95145  Biso   1.000  Ir
  Ir8      1.0000 0.29575  0.95510  0.95145  Biso   1.000  Ir
  Ir9      1.0000 0.04490  0.34065  0.95145  Biso   1.000  Ir
  Ir10     1.0000 0.67398  0.96241  0.71521  Biso   1.000  Ir
  Ir11     1.0000 0.03759  0.71157  0.71521  Biso   1.000  Ir
  Ir12     1.0000 0.28843  0.32602  0.71521  Biso   1.000  Ir
  Ir13     1.0000 0.32602  0.03759  0.28479  Biso   1.000  Ir
  Ir14     1.0000 0.96242  0.28843  0.28479  Biso   1.000  Ir
  Ir15     1.0000 0.71157  0.67398  0.28479  Biso   1.000  Ir
  Ir16     1.0000 0.34065  0.29575  0.04855  Biso   1.000  Ir
  Ir17     1.0000 0.70425  0.04490  0.04855  Biso   1.000  Ir
  Ir18     1.0000 0.95510  0.65935  0.04855  Biso   1.000  Ir
