data_image0
_cell_length_a       5.35547
_cell_length_b       5.35547
_cell_length_c       15.3253
_cell_angle_alpha    90
_cell_angle_beta     90
_cell_angle_gamma    90

_symmetry_space_group_name_H-M    "P 1"
_symmetry_int_tables_number       1

loop_
  _symmetry_equiv_pos_as_xyz
  'x, y, z'

loop_
  _atom_site_label
  _atom_site_occupancy
  _atom_site_fract_x
  _atom_site_fract_y
  _atom_site_fract_z
  _atom_site_thermal_displace_type
  _atom_site_B_iso_or_equiv
  _atom_site_type_symbol
  O1       1.0000 0.50000  0.00000  0.03850  Biso   1.000  O
  O2       1.0000 0.00000  0.50000  0.03850  Biso   1.000  O
  O3       1.0000 0.00000  0.00000  0.17815  Biso   1.000  O
  O4       1.0000 0.50000  0.50000  0.18605  Biso   1.000  O
  O5       1.0000 0.77183  0.77183  0.36043  Biso   1.000  O
  O6       1.0000 0.22817  0.22817  0.36043  Biso   1.000  O
  O7       1.0000 0.22817  0.77183  0.36043  Biso   1.000  O
  O8       1.0000 0.77183  0.22817  0.36043  Biso   1.000  O
  O9       1.0000 0.00000  0.50000  0.53850  Biso   1.000  O
  O10      1.0000 0.50000  0.00000  0.53850  Biso   1.000  O
  O11      1.0000 0.50000  0.50000  0.67815  Biso   1.000  O
  O12      1.0000 0.00000  0.00000  0.68605  Biso   1.000  O
  O13      1.0000 0.27183  0.27183  0.86043  Biso   1.000  O
  O14      1.0000 0.72817  0.72817  0.86043  Biso   1.000  O
  O15      1.0000 0.72817  0.27183  0.86043  Biso   1.000  O
  O16      1.0000 0.27183  0.72817  0.86043  Biso   1.000  O
  Ir1      1.0000 0.50000  0.50000  0.00763  Biso   1.000  Ir
  Ir2      1.0000 0.50000  0.00000  0.21940  Biso   1.000  Ir
  Ir3      1.0000 0.00000  0.50000  0.21940  Biso   1.000  Ir
  Ir4      1.0000 0.50000  0.50000  0.49557  Biso   1.000  Ir
  Ir5      1.0000 0.00000  0.00000  0.50763  Biso   1.000  Ir
  Ir6      1.0000 0.00000  0.50000  0.71940  Biso   1.000  Ir
  Ir7      1.0000 0.50000  0.00000  0.71940  Biso   1.000  Ir
  Ir8      1.0000 0.00000  0.00000  0.99557  Biso   1.000  Ir
