data_image0
_cell_length_a       5.4246
_cell_length_b       5.4246
_cell_length_c       125.101
_cell_angle_alpha    90
_cell_angle_beta     90
_cell_angle_gamma    120

_symmetry_space_group_name_H-M    "P 1"
_symmetry_int_tables_number       1

loop_
  _symmetry_equiv_pos_as_xyz
  'x, y, z'

loop_
  _atom_site_label
  _atom_site_occupancy
  _atom_site_fract_x
  _atom_site_fract_y
  _atom_site_fract_z
  _atom_site_thermal_displace_type
  _atom_site_B_iso_or_equiv
  _atom_site_type_symbol
  Ir1      1.0000 0.00000  0.00000  0.48529  Biso   1.000  Ir
  Ir2      1.0000 0.00000  0.00000  0.77943  Biso   1.000  Ir
  Ir3      1.0000 0.33333  0.66667  0.66176  Biso   1.000  Ir
  Ir4      1.0000 0.00000  0.00000  0.19115  Biso   1.000  Ir
  Ir5      1.0000 0.33333  0.66667  0.54411  Biso   1.000  Ir
  Ir6      1.0000 0.00000  0.00000  0.72060  Biso   1.000  Ir
  Ir7      1.0000 0.33333  0.66667  0.95588  Biso   1.000  Ir
  Ir8      1.0000 0.00000  0.00000  0.89705  Biso   1.000  Ir
  Ir9      1.0000 0.00000  0.00000  0.42648  Biso   1.000  Ir
  Ir10     1.0000 0.33333  0.66667  0.83824  Biso   1.000  Ir
  Ir11     1.0000 0.00000  0.00000  0.13236  Biso   1.000  Ir
  Ir12     1.0000 0.00000  0.00000  0.01473  Biso   1.000  Ir
  Ir13     1.0000 0.00000  0.00000  0.30881  Biso   1.000  Ir
  Ir14     1.0000 0.33333  0.66667  0.07353  Biso   1.000  Ir
  Ir15     1.0000 0.33333  0.66667  0.24999  Biso   1.000  Ir
  Ir16     1.0000 0.33333  0.66667  0.36766  Biso   1.000  Ir
  Ir17     1.0000 0.00000  0.00000  0.60293  Biso   1.000  Ir
  O1       1.0000 0.33333  0.66667  0.41267  Biso   1.000  O
  O2       1.0000 0.66667  0.33333  0.32262  Biso   1.000  O
  O3       1.0000 0.66667  0.33333  0.44029  Biso   1.000  O
  O4       1.0000 0.66667  0.33333  0.55792  Biso   1.000  O
  O5       1.0000 0.00000  0.00000  0.94208  Biso   1.000  O
  O6       1.0000 0.33333  0.66667  0.70679  Biso   1.000  O
  O7       1.0000 0.66667  0.33333  0.14617  Biso   1.000  O
  O8       1.0000 0.00000  0.00000  0.35385  Biso   1.000  O
  O9       1.0000 0.00000  0.00000  0.64795  Biso   1.000  O
  O10      1.0000 0.33333  0.66667  0.29500  Biso   1.000  O
  O11      1.0000 0.33333  0.66667  0.88324  Biso   1.000  O
  O12      1.0000 0.66667  0.33333  0.96968  Biso   1.000  O
  O13      1.0000 0.66667  0.33333  0.20496  Biso   1.000  O
  O14      1.0000 0.33333  0.66667  0.47148  Biso   1.000  O
  O15      1.0000 0.66667  0.33333  0.67556  Biso   1.000  O
  O16      1.0000 0.33333  0.66667  0.11857  Biso   1.000  O
  O17      1.0000 0.66667  0.33333  0.38146  Biso   1.000  O
  O18      1.0000 0.00000  0.00000  0.05972  Biso   1.000  O
  O19      1.0000 0.66667  0.33333  0.02853  Biso   1.000  O
  O20      1.0000 0.33333  0.66667  0.76563  Biso   1.000  O
  O21      1.0000 0.33333  0.66667  0.00092  Biso   1.000  O
  O22      1.0000 0.00000  0.00000  0.53031  Biso   1.000  O
  O23      1.0000 0.33333  0.66667  0.17734  Biso   1.000  O
  O24      1.0000 0.66667  0.33333  0.61674  Biso   1.000  O
  O25      1.0000 0.00000  0.00000  0.23619  Biso   1.000  O
  O26      1.0000 0.66667  0.33333  0.91086  Biso   1.000  O
  O27      1.0000 0.66667  0.33333  0.08733  Biso   1.000  O
  O28      1.0000 0.66667  0.33333  0.79323  Biso   1.000  O
  O29      1.0000 0.00000  0.00000  0.82444  Biso   1.000  O
  O30      1.0000 0.33333  0.66667  0.58913  Biso   1.000  O
  O31      1.0000 0.66667  0.33333  0.73441  Biso   1.000  O
  O32      1.0000 0.66667  0.33333  0.26380  Biso   1.000  O
  O33      1.0000 0.66667  0.33333  0.85204  Biso   1.000  O
  O34      1.0000 0.66667  0.33333  0.49909  Biso   1.000  O
