data_image0
_cell_length_a       2.55319
_cell_length_b       7.58106
_cell_length_c       4.38112
_cell_angle_alpha    90
_cell_angle_beta     90
_cell_angle_gamma    90

_symmetry_space_group_name_H-M    "P 1"
_symmetry_int_tables_number       1

loop_
  _symmetry_equiv_pos_as_xyz
  'x, y, z'

loop_
  _atom_site_label
  _atom_site_occupancy
  _atom_site_fract_x
  _atom_site_fract_y
  _atom_site_fract_z
  _atom_site_thermal_displace_type
  _atom_site_B_iso_or_equiv
  _atom_site_type_symbol
  Ir1      1.0000 0.00000  0.00000  0.00014  Biso   1.000  Ir
  Ir2      1.0000 0.00000  0.50000  0.50014  Biso   1.000  Ir
  O1       1.0000 0.50000  0.16681  0.49998  Biso   1.000  O
  O2       1.0000 0.50000  0.83319  0.49998  Biso   1.000  O
  O3       1.0000 0.50000  0.66681  0.99998  Biso   1.000  O
  O4       1.0000 0.50000  0.33319  0.99998  Biso   1.000  O
