data_image0
_cell_length_a       13.6188
_cell_length_b       13.6188
_cell_length_c       4.60394
_cell_angle_alpha    90
_cell_angle_beta     90
_cell_angle_gamma    90

_symmetry_space_group_name_H-M    "P 1"
_symmetry_int_tables_number       1

loop_
  _symmetry_equiv_pos_as_xyz
  'x, y, z'

loop_
  _atom_site_label
  _atom_site_occupancy
  _atom_site_fract_x
  _atom_site_fract_y
  _atom_site_fract_z
  _atom_site_thermal_displace_type
  _atom_site_B_iso_or_equiv
  _atom_site_type_symbol
  Ir1      1.0000 0.92947  0.75603  0.49894  Biso   1.000  Ir
  Ir2      1.0000 0.07053  0.24397  0.49894  Biso   1.000  Ir
  Ir3      1.0000 0.74397  0.42947  0.99894  Biso   1.000  Ir
  Ir4      1.0000 0.25603  0.57053  0.99894  Biso   1.000  Ir
  Ir5      1.0000 0.42947  0.74397  0.99894  Biso   1.000  Ir
  Ir6      1.0000 0.57053  0.25603  0.99894  Biso   1.000  Ir
  Ir7      1.0000 0.24397  0.07053  0.49894  Biso   1.000  Ir
  Ir8      1.0000 0.75603  0.92947  0.49894  Biso   1.000  Ir
  O1       1.0000 0.32215  0.32215  0.50035  Biso   1.000  O
  O2       1.0000 0.67785  0.67785  0.50035  Biso   1.000  O
  O3       1.0000 0.17785  0.82215  0.00035  Biso   1.000  O
  O4       1.0000 0.82215  0.17785  0.00035  Biso   1.000  O
  O5       1.0000 0.11095  0.11095  0.55677  Biso   1.000  O
  O6       1.0000 0.88905  0.88905  0.55677  Biso   1.000  O
  O7       1.0000 0.38905  0.61095  0.05677  Biso   1.000  O
  O8       1.0000 0.61095  0.38905  0.05677  Biso   1.000  O
  O9       1.0000 0.85017  0.64534  0.33298  Biso   1.000  O
  O10      1.0000 0.14983  0.35466  0.33298  Biso   1.000  O
  O11      1.0000 0.85466  0.35017  0.83298  Biso   1.000  O
  O12      1.0000 0.14534  0.64983  0.83298  Biso   1.000  O
  O13      1.0000 0.35017  0.85466  0.83298  Biso   1.000  O
  O14      1.0000 0.64983  0.14534  0.83298  Biso   1.000  O
  O15      1.0000 0.35466  0.14983  0.33298  Biso   1.000  O
  O16      1.0000 0.64534  0.85017  0.33298  Biso   1.000  O
