data_image0
_cell_length_a       26.3974
_cell_length_b       3.47393
_cell_length_c       6.00774
_cell_angle_alpha    90
_cell_angle_beta     90
_cell_angle_gamma    90

_symmetry_space_group_name_H-M    "P 1"
_symmetry_int_tables_number       1

loop_
  _symmetry_equiv_pos_as_xyz
  'x, y, z'

loop_
  _atom_site_label
  _atom_site_occupancy
  _atom_site_fract_x
  _atom_site_fract_y
  _atom_site_fract_z
  _atom_site_thermal_displace_type
  _atom_site_B_iso_or_equiv
  _atom_site_type_symbol
  Ir1      1.0000 0.00000  0.00000  0.22302  Biso   1.000  Ir
  Ir2      1.0000 0.74025  0.00000  0.99940  Biso   1.000  Ir
  Ir3      1.0000 0.25975  0.00000  0.99940  Biso   1.000  Ir
  Ir4      1.0000 0.50000  0.00000  0.66697  Biso   1.000  Ir
  Ir5      1.0000 0.00000  0.50000  0.72302  Biso   1.000  Ir
  Ir6      1.0000 0.74025  0.50000  0.49940  Biso   1.000  Ir
  Ir7      1.0000 0.25975  0.50000  0.49940  Biso   1.000  Ir
  Ir8      1.0000 0.50000  0.50000  0.16697  Biso   1.000  Ir
  O1       1.0000 0.93625  0.00000  0.89062  Biso   1.000  O
  O2       1.0000 0.06375  0.00000  0.89062  Biso   1.000  O
  O3       1.0000 0.80393  0.00000  0.33278  Biso   1.000  O
  O4       1.0000 0.19607  0.00000  0.33278  Biso   1.000  O
  O5       1.0000 0.67655  0.00000  0.66607  Biso   1.000  O
  O6       1.0000 0.32345  0.00000  0.66607  Biso   1.000  O
  O7       1.0000 0.56349  0.00000  0.33278  Biso   1.000  O
  O8       1.0000 0.43651  0.00000  0.33278  Biso   1.000  O
  O9       1.0000 0.93625  0.50000  0.39062  Biso   1.000  O
  O10      1.0000 0.06375  0.50000  0.39062  Biso   1.000  O
  O11      1.0000 0.80393  0.50000  0.83278  Biso   1.000  O
  O12      1.0000 0.19607  0.50000  0.83278  Biso   1.000  O
  O13      1.0000 0.67655  0.50000  0.16607  Biso   1.000  O
  O14      1.0000 0.32345  0.50000  0.16607  Biso   1.000  O
  O15      1.0000 0.56349  0.50000  0.83278  Biso   1.000  O
  O16      1.0000 0.43651  0.50000  0.83278  Biso   1.000  O
