data_image0
_cell_length_a       5.3628
_cell_length_b       5.3628
_cell_length_c       69.7773
_cell_angle_alpha    90
_cell_angle_beta     90
_cell_angle_gamma    120

_symmetry_space_group_name_H-M    "P 1"
_symmetry_int_tables_number       1

loop_
  _symmetry_equiv_pos_as_xyz
  'x, y, z'

loop_
  _atom_site_label
  _atom_site_occupancy
  _atom_site_fract_x
  _atom_site_fract_y
  _atom_site_fract_z
  _atom_site_thermal_displace_type
  _atom_site_B_iso_or_equiv
  _atom_site_type_symbol
  Ir1      1.0000 0.33333  0.66667  0.02499  Biso   1.000  Ir
  Ir2      1.0000 0.00000  0.00000  0.12499  Biso   1.000  Ir
  Ir3      1.0000 0.33333  0.66667  0.22498  Biso   1.000  Ir
  Ir4      1.0000 0.00000  0.00000  0.32499  Biso   1.000  Ir
  Ir5      1.0000 0.33333  0.66667  0.42504  Biso   1.000  Ir
  Ir6      1.0000 0.00000  0.00000  0.52500  Biso   1.000  Ir
  Ir7      1.0000 0.33333  0.66667  0.62503  Biso   1.000  Ir
  Ir8      1.0000 0.33333  0.66667  0.72502  Biso   1.000  Ir
  Ir9      1.0000 0.00000  0.00000  0.82496  Biso   1.000  Ir
  Ir10     1.0000 0.33333  0.66667  0.92493  Biso   1.000  Ir
  O1       1.0000 0.00000  0.00000  0.00026  Biso   1.000  O
  O2       1.0000 0.66667  0.33333  0.04976  Biso   1.000  O
  O3       1.0000 0.33333  0.66667  0.10027  Biso   1.000  O
  O4       1.0000 0.66667  0.33333  0.14976  Biso   1.000  O
  O5       1.0000 0.00000  0.00000  0.20027  Biso   1.000  O
  O6       1.0000 0.66667  0.33333  0.24975  Biso   1.000  O
  O7       1.0000 0.33333  0.66667  0.30025  Biso   1.000  O
  O8       1.0000 0.66667  0.33333  0.34972  Biso   1.000  O
  O9       1.0000 0.00000  0.00000  0.40024  Biso   1.000  O
  O10      1.0000 0.66667  0.33333  0.44974  Biso   1.000  O
  O11      1.0000 0.33333  0.66667  0.50025  Biso   1.000  O
  O12      1.0000 0.66667  0.33333  0.54974  Biso   1.000  O
  O13      1.0000 0.00000  0.00000  0.60025  Biso   1.000  O
  O14      1.0000 0.66667  0.33333  0.64974  Biso   1.000  O
  O15      1.0000 0.00000  0.00000  0.70026  Biso   1.000  O
  O16      1.0000 0.66667  0.33333  0.74973  Biso   1.000  O
  O17      1.0000 0.33333  0.66667  0.80027  Biso   1.000  O
  O18      1.0000 0.66667  0.33333  0.84973  Biso   1.000  O
  O19      1.0000 0.00000  0.00000  0.90030  Biso   1.000  O
  O20      1.0000 0.66667  0.33333  0.94979  Biso   1.000  O
