data_image0
_cell_length_a       12.5345
_cell_length_b       14.5892
_cell_length_c       12.2764
_cell_angle_alpha    90
_cell_angle_beta     90
_cell_angle_gamma    90

_symmetry_space_group_name_H-M    "P 1"
_symmetry_int_tables_number       1

loop_
  _symmetry_equiv_pos_as_xyz
  'x, y, z'

loop_
  _atom_site_label
  _atom_site_occupancy
  _atom_site_fract_x
  _atom_site_fract_y
  _atom_site_fract_z
  _atom_site_thermal_displace_type
  _atom_site_B_iso_or_equiv
  _atom_site_type_symbol
  O1       1.0000 0.09027  0.08021  0.15845  Biso   1.000  O
  O2       1.0000 0.90973  0.91979  0.15845  Biso   1.000  O
  O3       1.0000 0.90973  0.08021  0.34155  Biso   1.000  O
  O4       1.0000 0.09027  0.91979  0.34155  Biso   1.000  O
  O5       1.0000 0.90973  0.91979  0.84155  Biso   1.000  O
  O6       1.0000 0.09027  0.08021  0.84155  Biso   1.000  O
  O7       1.0000 0.09027  0.91979  0.65845  Biso   1.000  O
  O8       1.0000 0.90973  0.08021  0.65845  Biso   1.000  O
  O9       1.0000 0.58173  0.75767  0.00000  Biso   1.000  O
  O10      1.0000 0.41827  0.24232  0.00000  Biso   1.000  O
  O11      1.0000 0.41827  0.75767  0.50000  Biso   1.000  O
  O12      1.0000 0.58173  0.24232  0.50000  Biso   1.000  O
  O13      1.0000 0.50000  0.77131  0.25000  Biso   1.000  O
  O14      1.0000 0.50000  0.22869  0.25000  Biso   1.000  O
  O15      1.0000 0.50000  0.22869  0.75000  Biso   1.000  O
  O16      1.0000 0.50000  0.77131  0.75000  Biso   1.000  O
  O17      1.0000 0.25000  0.25000  0.19870  Biso   1.000  O
  O18      1.0000 0.25000  0.75000  0.30130  Biso   1.000  O
  O19      1.0000 0.25000  0.25000  0.80130  Biso   1.000  O
  O20      1.0000 0.25000  0.75000  0.69870  Biso   1.000  O
  O21      1.0000 0.59027  0.58021  0.15845  Biso   1.000  O
  O22      1.0000 0.40973  0.41979  0.15845  Biso   1.000  O
  O23      1.0000 0.40973  0.58021  0.34155  Biso   1.000  O
  O24      1.0000 0.59027  0.41979  0.34155  Biso   1.000  O
  O25      1.0000 0.40973  0.41979  0.84155  Biso   1.000  O
  O26      1.0000 0.59027  0.58021  0.84155  Biso   1.000  O
  O27      1.0000 0.59027  0.41979  0.65845  Biso   1.000  O
  O28      1.0000 0.40973  0.58021  0.65845  Biso   1.000  O
  O29      1.0000 0.08173  0.25767  0.00000  Biso   1.000  O
  O30      1.0000 0.91827  0.74232  0.00000  Biso   1.000  O
  O31      1.0000 0.91827  0.25767  0.50000  Biso   1.000  O
  O32      1.0000 0.08173  0.74232  0.50000  Biso   1.000  O
  O33      1.0000 0.00000  0.27131  0.25000  Biso   1.000  O
  O34      1.0000 0.00000  0.72869  0.25000  Biso   1.000  O
  O35      1.0000 0.00000  0.72869  0.75000  Biso   1.000  O
  O36      1.0000 0.00000  0.27131  0.75000  Biso   1.000  O
  O37      1.0000 0.75000  0.75000  0.19870  Biso   1.000  O
  O38      1.0000 0.75000  0.25000  0.30130  Biso   1.000  O
  O39      1.0000 0.75000  0.75000  0.80130  Biso   1.000  O
  O40      1.0000 0.75000  0.25000  0.69870  Biso   1.000  O
  Ir1      1.0000 0.60593  0.71524  0.15077  Biso   1.000  Ir
  Ir2      1.0000 0.39407  0.28476  0.15077  Biso   1.000  Ir
  Ir3      1.0000 0.39407  0.71524  0.34923  Biso   1.000  Ir
  Ir4      1.0000 0.60593  0.28476  0.34923  Biso   1.000  Ir
  Ir5      1.0000 0.39407  0.28476  0.84923  Biso   1.000  Ir
  Ir6      1.0000 0.60593  0.71524  0.84923  Biso   1.000  Ir
  Ir7      1.0000 0.60593  0.28476  0.65077  Biso   1.000  Ir
  Ir8      1.0000 0.39407  0.71524  0.65077  Biso   1.000  Ir
  Ir9      1.0000 0.00000  0.00000  0.25000  Biso   1.000  Ir
  Ir10     1.0000 0.00000  0.00000  0.75000  Biso   1.000  Ir
  Ir11     1.0000 0.10593  0.21524  0.15077  Biso   1.000  Ir
  Ir12     1.0000 0.89407  0.78476  0.15077  Biso   1.000  Ir
  Ir13     1.0000 0.89407  0.21524  0.34923  Biso   1.000  Ir
  Ir14     1.0000 0.10593  0.78476  0.34923  Biso   1.000  Ir
  Ir15     1.0000 0.89407  0.78476  0.84923  Biso   1.000  Ir
  Ir16     1.0000 0.10593  0.21524  0.84923  Biso   1.000  Ir
  Ir17     1.0000 0.10593  0.78476  0.65077  Biso   1.000  Ir
  Ir18     1.0000 0.89407  0.21524  0.65077  Biso   1.000  Ir
  Ir19     1.0000 0.50000  0.50000  0.25000  Biso   1.000  Ir
  Ir20     1.0000 0.50000  0.50000  0.75000  Biso   1.000  Ir
