data_image0
_cell_length_a       6.38458
_cell_length_b       6.76871
_cell_length_c       6.94211
_cell_angle_alpha    64.862
_cell_angle_beta     67.8198
_cell_angle_gamma    89.8101

_symmetry_space_group_name_H-M    "P 1"
_symmetry_int_tables_number       1

loop_
  _symmetry_equiv_pos_as_xyz
  'x, y, z'

loop_
  _atom_site_label
  _atom_site_occupancy
  _atom_site_fract_x
  _atom_site_fract_y
  _atom_site_fract_z
  _atom_site_thermal_displace_type
  _atom_site_B_iso_or_equiv
  _atom_site_type_symbol
  O1       1.0000 0.73331  0.94085  0.55948  Biso   1.000  O
  O2       1.0000 0.26669  0.05915  0.44052  Biso   1.000  O
  O3       1.0000 0.98481  0.87039  0.17055  Biso   1.000  O
  O4       1.0000 0.01519  0.12961  0.82945  Biso   1.000  O
  O5       1.0000 0.51873  0.84948  0.10551  Biso   1.000  O
  O6       1.0000 0.48127  0.15052  0.89449  Biso   1.000  O
  O7       1.0000 0.95650  0.69881  0.84162  Biso   1.000  O
  O8       1.0000 0.04350  0.30119  0.15838  Biso   1.000  O
  O9       1.0000 0.36634  0.62489  0.99311  Biso   1.000  O
  O10      1.0000 0.63366  0.37511  0.00689  Biso   1.000  O
  O11      1.0000 0.70093  0.57678  0.57507  Biso   1.000  O
  O12      1.0000 0.29907  0.42322  0.42493  Biso   1.000  O
  Ir1      1.0000 0.29833  0.92243  0.88356  Biso   1.000  Ir
  Ir2      1.0000 0.70167  0.07757  0.11644  Biso   1.000  Ir
  Ir3      1.0000 0.98306  0.76653  0.52289  Biso   1.000  Ir
  Ir4      1.0000 0.01694  0.23347  0.47711  Biso   1.000  Ir
  Ir5      1.0000 0.63677  0.57790  0.14346  Biso   1.000  Ir
  Ir6      1.0000 0.36323  0.42210  0.85654  Biso   1.000  Ir
