data_image0
_cell_length_a       5.29375
_cell_length_b       5.0949
_cell_length_c       5.10824
_cell_angle_alpha    90
_cell_angle_beta     90
_cell_angle_gamma    90

_symmetry_space_group_name_H-M    "P 1"
_symmetry_int_tables_number       1

loop_
  _symmetry_equiv_pos_as_xyz
  'x, y, z'

loop_
  _atom_site_label
  _atom_site_occupancy
  _atom_site_fract_x
  _atom_site_fract_y
  _atom_site_fract_z
  _atom_site_thermal_displace_type
  _atom_site_B_iso_or_equiv
  _atom_site_type_symbol
  O1       1.0000 0.26859  0.46122  0.99788  Biso   1.000  O
  O2       1.0000 0.73141  0.53878  0.49788  Biso   1.000  O
  O3       1.0000 0.76859  0.53878  0.99788  Biso   1.000  O
  O4       1.0000 0.23141  0.46122  0.49788  Biso   1.000  O
  O5       1.0000 0.13376  0.93075  0.89359  Biso   1.000  O
  O6       1.0000 0.86624  0.06924  0.39359  Biso   1.000  O
  O7       1.0000 0.63376  0.06924  0.89359  Biso   1.000  O
  O8       1.0000 0.36624  0.93075  0.39359  Biso   1.000  O
  Ir1      1.0000 0.46987  0.73324  0.75253  Biso   1.000  Ir
  Ir2      1.0000 0.53013  0.26676  0.25254  Biso   1.000  Ir
  Ir3      1.0000 0.96987  0.26676  0.75253  Biso   1.000  Ir
  Ir4      1.0000 0.03013  0.73324  0.25254  Biso   1.000  Ir
