data_image0
_cell_length_a       5.61053
_cell_length_b       5.61053
_cell_length_c       11.2059
_cell_angle_alpha    90
_cell_angle_beta     90
_cell_angle_gamma    90

_symmetry_space_group_name_H-M    "P 1"
_symmetry_int_tables_number       1

loop_
  _symmetry_equiv_pos_as_xyz
  'x, y, z'

loop_
  _atom_site_label
  _atom_site_occupancy
  _atom_site_fract_x
  _atom_site_fract_y
  _atom_site_fract_z
  _atom_site_thermal_displace_type
  _atom_site_B_iso_or_equiv
  _atom_site_type_symbol
  O1       1.0000 0.25056  0.24578  0.12961  Biso   1.000  O
  O2       1.0000 0.74944  0.75422  0.12961  Biso   1.000  O
  O3       1.0000 0.75422  0.75056  0.37961  Biso   1.000  O
  O4       1.0000 0.24578  0.24944  0.37961  Biso   1.000  O
  O5       1.0000 0.25056  0.75422  0.12961  Biso   1.000  O
  O6       1.0000 0.74944  0.24578  0.12961  Biso   1.000  O
  O7       1.0000 0.75422  0.24944  0.37961  Biso   1.000  O
  O8       1.0000 0.24578  0.75056  0.37961  Biso   1.000  O
  O9       1.0000 0.75056  0.74578  0.62961  Biso   1.000  O
  O10      1.0000 0.24944  0.25422  0.62961  Biso   1.000  O
  O11      1.0000 0.25422  0.25056  0.87961  Biso   1.000  O
  O12      1.0000 0.74578  0.74944  0.87961  Biso   1.000  O
  O13      1.0000 0.75056  0.25422  0.62961  Biso   1.000  O
  O14      1.0000 0.24944  0.74578  0.62961  Biso   1.000  O
  O15      1.0000 0.25422  0.74944  0.87961  Biso   1.000  O
  O16      1.0000 0.74578  0.25056  0.87961  Biso   1.000  O
  Ir1      1.0000 0.00000  0.00000  0.00333  Biso   1.000  Ir
  Ir2      1.0000 0.00000  0.50000  0.25333  Biso   1.000  Ir
  Ir3      1.0000 0.50000  0.50000  0.00625  Biso   1.000  Ir
  Ir4      1.0000 0.50000  0.00000  0.25625  Biso   1.000  Ir
  Ir5      1.0000 0.50000  0.50000  0.50333  Biso   1.000  Ir
  Ir6      1.0000 0.50000  0.00000  0.75333  Biso   1.000  Ir
  Ir7      1.0000 0.00000  0.00000  0.50625  Biso   1.000  Ir
  Ir8      1.0000 0.00000  0.50000  0.75625  Biso   1.000  Ir
