data_image0
_cell_length_a       14.9711
_cell_length_b       14.9711
_cell_length_c       5.29352
_cell_angle_alpha    90
_cell_angle_beta     90
_cell_angle_gamma    90

_symmetry_space_group_name_H-M    "P 1"
_symmetry_int_tables_number       1

loop_
  _symmetry_equiv_pos_as_xyz
  'x, y, z'

loop_
  _atom_site_label
  _atom_site_occupancy
  _atom_site_fract_x
  _atom_site_fract_y
  _atom_site_fract_z
  _atom_site_thermal_displace_type
  _atom_site_B_iso_or_equiv
  _atom_site_type_symbol
  O1       1.0000 0.84672  0.34672  0.63280  Biso   1.000  O
  O2       1.0000 0.15327  0.65328  0.63280  Biso   1.000  O
  O3       1.0000 0.65328  0.84672  0.63280  Biso   1.000  O
  O4       1.0000 0.34672  0.15327  0.63280  Biso   1.000  O
  O5       1.0000 0.15327  0.34672  0.36720  Biso   1.000  O
  O6       1.0000 0.84672  0.65328  0.36720  Biso   1.000  O
  O7       1.0000 0.34672  0.84672  0.36720  Biso   1.000  O
  O8       1.0000 0.65328  0.15327  0.36720  Biso   1.000  O
  O9       1.0000 0.62599  0.62599  0.50000  Biso   1.000  O
  O10      1.0000 0.37401  0.37401  0.50000  Biso   1.000  O
  O11      1.0000 0.37401  0.62599  0.50000  Biso   1.000  O
  O12      1.0000 0.62599  0.37401  0.50000  Biso   1.000  O
  O13      1.0000 0.87401  0.87401  0.50000  Biso   1.000  O
  O14      1.0000 0.12599  0.12599  0.50000  Biso   1.000  O
  O15      1.0000 0.12599  0.87401  0.50000  Biso   1.000  O
  O16      1.0000 0.87401  0.12599  0.50000  Biso   1.000  O
  O17      1.0000 0.31239  0.31239  0.00000  Biso   1.000  O
  O18      1.0000 0.68761  0.68761  0.00000  Biso   1.000  O
  O19      1.0000 0.68761  0.31239  0.00000  Biso   1.000  O
  O20      1.0000 0.31239  0.68761  0.00000  Biso   1.000  O
  O21      1.0000 0.18761  0.18761  0.00000  Biso   1.000  O
  O22      1.0000 0.81239  0.81239  0.00000  Biso   1.000  O
  O23      1.0000 0.81239  0.18761  0.00000  Biso   1.000  O
  O24      1.0000 0.18761  0.81239  0.00000  Biso   1.000  O
  O25      1.0000 0.75243  0.00000  0.00000  Biso   1.000  O
  O26      1.0000 0.24757  0.00000  0.00000  Biso   1.000  O
  O27      1.0000 0.00000  0.75243  0.00000  Biso   1.000  O
  O28      1.0000 0.00000  0.24757  0.00000  Biso   1.000  O
  O29      1.0000 0.74757  0.50000  0.00000  Biso   1.000  O
  O30      1.0000 0.25243  0.50000  0.00000  Biso   1.000  O
  O31      1.0000 0.50000  0.74757  0.00000  Biso   1.000  O
  O32      1.0000 0.50000  0.25243  0.00000  Biso   1.000  O
  Ir1      1.0000 0.60513  0.27192  0.23971  Biso   1.000  Ir
  Ir2      1.0000 0.39487  0.72808  0.23971  Biso   1.000  Ir
  Ir3      1.0000 0.72808  0.60513  0.23971  Biso   1.000  Ir
  Ir4      1.0000 0.27192  0.39487  0.23971  Biso   1.000  Ir
  Ir5      1.0000 0.39487  0.27192  0.76029  Biso   1.000  Ir
  Ir6      1.0000 0.60513  0.72808  0.76029  Biso   1.000  Ir
  Ir7      1.0000 0.27192  0.60513  0.76029  Biso   1.000  Ir
  Ir8      1.0000 0.72808  0.39487  0.76029  Biso   1.000  Ir
  Ir9      1.0000 0.89487  0.22808  0.76029  Biso   1.000  Ir
  Ir10     1.0000 0.10513  0.77192  0.76029  Biso   1.000  Ir
  Ir11     1.0000 0.77192  0.89487  0.76029  Biso   1.000  Ir
  Ir12     1.0000 0.22808  0.10513  0.76029  Biso   1.000  Ir
  Ir13     1.0000 0.10513  0.22808  0.23971  Biso   1.000  Ir
  Ir14     1.0000 0.89487  0.77192  0.23971  Biso   1.000  Ir
  Ir15     1.0000 0.22808  0.89487  0.23971  Biso   1.000  Ir
  Ir16     1.0000 0.77192  0.10513  0.23971  Biso   1.000  Ir
