data_image0
_cell_length_a       5.42224
_cell_length_b       5.42224
_cell_length_c       89.5267
_cell_angle_alpha    90
_cell_angle_beta     90
_cell_angle_gamma    120

_symmetry_space_group_name_H-M    "P 1"
_symmetry_int_tables_number       1

loop_
  _symmetry_equiv_pos_as_xyz
  'x, y, z'

loop_
  _atom_site_label
  _atom_site_occupancy
  _atom_site_fract_x
  _atom_site_fract_y
  _atom_site_fract_z
  _atom_site_thermal_displace_type
  _atom_site_B_iso_or_equiv
  _atom_site_type_symbol
  Ir1      1.0000 0.00000  0.00000  0.02086  Biso   1.000  Ir
  Ir2      1.0000 0.33333  0.66667  0.35418  Biso   1.000  Ir
  Ir3      1.0000 0.33333  0.66667  0.43748  Biso   1.000  Ir
  Ir4      1.0000 0.33333  0.66667  0.10415  Biso   1.000  Ir
  Ir5      1.0000 0.33333  0.66667  0.52084  Biso   1.000  Ir
  Ir6      1.0000 0.33333  0.66667  0.77082  Biso   1.000  Ir
  Ir7      1.0000 0.33333  0.66667  0.85418  Biso   1.000  Ir
  Ir8      1.0000 0.00000  0.00000  0.27082  Biso   1.000  Ir
  Ir9      1.0000 0.33333  0.66667  0.93748  Biso   1.000  Ir
  Ir10     1.0000 0.00000  0.00000  0.60416  Biso   1.000  Ir
  Ir11     1.0000 0.33333  0.66667  0.68751  Biso   1.000  Ir
  Ir12     1.0000 0.33333  0.66667  0.18751  Biso   1.000  Ir
  O1       1.0000 0.00000  0.00000  0.83494  Biso   1.000  O
  O2       1.0000 0.66667  0.33333  0.79005  Biso   1.000  O
  O3       1.0000 0.00000  0.00000  0.33494  Biso   1.000  O
  O4       1.0000 0.00000  0.00000  0.08491  Biso   1.000  O
  O5       1.0000 0.66667  0.33333  0.45672  Biso   1.000  O
  O6       1.0000 0.66667  0.33333  0.20675  Biso   1.000  O
  O7       1.0000 0.66667  0.33333  0.95671  Biso   1.000  O
  O8       1.0000 0.00000  0.00000  0.91824  Biso   1.000  O
  O9       1.0000 0.00000  0.00000  0.75158  Biso   1.000  O
  O10      1.0000 0.33333  0.66667  0.58493  Biso   1.000  O
  O11      1.0000 0.66667  0.33333  0.54008  Biso   1.000  O
  O12      1.0000 0.66667  0.33333  0.12339  Biso   1.000  O
  O13      1.0000 0.66667  0.33333  0.04010  Biso   1.000  O
  O14      1.0000 0.33333  0.66667  0.00163  Biso   1.000  O
  O15      1.0000 0.66667  0.33333  0.29006  Biso   1.000  O
  O16      1.0000 0.66667  0.33333  0.37341  Biso   1.000  O
  O17      1.0000 0.66667  0.33333  0.62340  Biso   1.000  O
  O18      1.0000 0.00000  0.00000  0.41824  Biso   1.000  O
  O19      1.0000 0.66667  0.33333  0.70676  Biso   1.000  O
  O20      1.0000 0.33333  0.66667  0.25159  Biso   1.000  O
  O21      1.0000 0.00000  0.00000  0.66828  Biso   1.000  O
  O22      1.0000 0.00000  0.00000  0.50161  Biso   1.000  O
  O23      1.0000 0.00000  0.00000  0.16828  Biso   1.000  O
  O24      1.0000 0.66667  0.33333  0.87341  Biso   1.000  O
