data_image0
_cell_length_a       26.992
_cell_length_b       26.992
_cell_length_c       10.4566
_cell_angle_alpha    90
_cell_angle_beta     90
_cell_angle_gamma    120

_symmetry_space_group_name_H-M    "P 1"
_symmetry_int_tables_number       1

loop_
  _symmetry_equiv_pos_as_xyz
  'x, y, z'

loop_
  _atom_site_label
  _atom_site_occupancy
  _atom_site_fract_x
  _atom_site_fract_y
  _atom_site_fract_z
  _atom_site_thermal_displace_type
  _atom_site_B_iso_or_equiv
  _atom_site_type_symbol
  O1       1.0000 0.33788  0.88817  0.45258  Biso   1.000  O
  O2       1.0000 0.44516  0.11637  0.11925  Biso   1.000  O
  O3       1.0000 0.21696  0.99546  0.78591  Biso   1.000  O
  O4       1.0000 0.32879  0.44516  0.88075  Biso   1.000  O
  O5       1.0000 0.22151  0.21696  0.21409  Biso   1.000  O
  O6       1.0000 0.44970  0.33787  0.54742  Biso   1.000  O
  O7       1.0000 0.14561  0.19923  0.98838  Biso   1.000  O
  O8       1.0000 0.46743  0.27971  0.32171  Biso   1.000  O
  O9       1.0000 0.38696  0.52106  0.65505  Biso   1.000  O
  O10      1.0000 0.52106  0.13410  0.34495  Biso   1.000  O
  O11      1.0000 0.19923  0.05363  0.01162  Biso   1.000  O
  O12      1.0000 0.27971  0.81227  0.67829  Biso   1.000  O
  O13      1.0000 0.31003  0.06957  0.43067  Biso   1.000  O
  O14      1.0000 0.26376  0.90712  0.09734  Biso   1.000  O
  O15      1.0000 0.42621  0.02330  0.76401  Biso   1.000  O
  O16      1.0000 0.35664  0.26376  0.90266  Biso   1.000  O
  O17      1.0000 0.40290  0.42621  0.23600  Biso   1.000  O
  O18      1.0000 0.24046  0.31003  0.56933  Biso   1.000  O
  O19      1.0000 0.11340  0.90147  0.48424  Biso   1.000  O
  O20      1.0000 0.43186  0.87859  0.15091  Biso   1.000  O
  O21      1.0000 0.45474  0.21994  0.81758  Biso   1.000  O
  O22      1.0000 0.55327  0.43186  0.84909  Biso   1.000  O
  O23      1.0000 0.23481  0.45474  0.18242  Biso   1.000  O
  O24      1.0000 0.21192  0.11340  0.51576  Biso   1.000  O
  O25      1.0000 0.00454  0.22151  0.78591  Biso   1.000  O
  O26      1.0000 0.11183  0.44970  0.45258  Biso   1.000  O
  O27      1.0000 0.88363  0.32879  0.11925  Biso   1.000  O
  O28      1.0000 0.99546  0.77849  0.21409  Biso   1.000  O
  O29      1.0000 0.88817  0.55030  0.54742  Biso   1.000  O
  O30      1.0000 0.11637  0.67121  0.88075  Biso   1.000  O
  O31      1.0000 0.81227  0.53256  0.32171  Biso   1.000  O
  O32      1.0000 0.13410  0.61304  0.65505  Biso   1.000  O
  O33      1.0000 0.05363  0.85439  0.98838  Biso   1.000  O
  O34      1.0000 0.18773  0.46743  0.67829  Biso   1.000  O
  O35      1.0000 0.86590  0.38696  0.34495  Biso   1.000  O
  O36      1.0000 0.94637  0.14561  0.01162  Biso   1.000  O
  O37      1.0000 0.97670  0.40290  0.76401  Biso   1.000  O
  O38      1.0000 0.93043  0.24046  0.43067  Biso   1.000  O
  O39      1.0000 0.09288  0.35664  0.09734  Biso   1.000  O
  O40      1.0000 0.02330  0.59710  0.23600  Biso   1.000  O
  O41      1.0000 0.06957  0.75954  0.56933  Biso   1.000  O
  O42      1.0000 0.90712  0.64336  0.90266  Biso   1.000  O
  O43      1.0000 0.78006  0.23481  0.81758  Biso   1.000  O
  O44      1.0000 0.09853  0.21193  0.48424  Biso   1.000  O
  O45      1.0000 0.12141  0.55327  0.15091  Biso   1.000  O
  O46      1.0000 0.21994  0.76519  0.18242  Biso   1.000  O
  O47      1.0000 0.90147  0.78807  0.51576  Biso   1.000  O
  O48      1.0000 0.87859  0.44673  0.84909  Biso   1.000  O
  O49      1.0000 0.67121  0.55484  0.11925  Biso   1.000  O
  O50      1.0000 0.77849  0.78304  0.78591  Biso   1.000  O
  O51      1.0000 0.55030  0.66212  0.45258  Biso   1.000  O
  O52      1.0000 0.66212  0.11183  0.54742  Biso   1.000  O
  O53      1.0000 0.55484  0.88363  0.88075  Biso   1.000  O
  O54      1.0000 0.78304  0.00454  0.21409  Biso   1.000  O
  O55      1.0000 0.47894  0.86590  0.65505  Biso   1.000  O
  O56      1.0000 0.80077  0.94637  0.98838  Biso   1.000  O
  O57      1.0000 0.72029  0.18773  0.32171  Biso   1.000  O
  O58      1.0000 0.85440  0.80077  0.01162  Biso   1.000  O
  O59      1.0000 0.53256  0.72029  0.67829  Biso   1.000  O
  O60      1.0000 0.61304  0.47894  0.34495  Biso   1.000  O
  O61      1.0000 0.64336  0.73624  0.09734  Biso   1.000  O
  O62      1.0000 0.59710  0.57379  0.76401  Biso   1.000  O
  O63      1.0000 0.75954  0.68997  0.43067  Biso   1.000  O
  O64      1.0000 0.68997  0.93043  0.56933  Biso   1.000  O
  O65      1.0000 0.73624  0.09288  0.90266  Biso   1.000  O
  O66      1.0000 0.57379  0.97670  0.23600  Biso   1.000  O
  O67      1.0000 0.44673  0.56814  0.15091  Biso   1.000  O
  O68      1.0000 0.76519  0.54526  0.81758  Biso   1.000  O
  O69      1.0000 0.78807  0.88660  0.48424  Biso   1.000  O
  O70      1.0000 0.88660  0.09853  0.51576  Biso   1.000  O
  O71      1.0000 0.56814  0.12141  0.84909  Biso   1.000  O
  O72      1.0000 0.54526  0.78006  0.18242  Biso   1.000  O
  Ir1      1.0000 0.22019  0.19382  0.05026  Biso   1.000  Ir
  Ir2      1.0000 0.47284  0.35970  0.38360  Biso   1.000  Ir
  Ir3      1.0000 0.30696  0.44647  0.71693  Biso   1.000  Ir
  Ir4      1.0000 0.44647  0.13951  0.28307  Biso   1.000  Ir
  Ir5      1.0000 0.19382  0.97363  0.94974  Biso   1.000  Ir
  Ir6      1.0000 0.35970  0.88686  0.61640  Biso   1.000  Ir
  Ir7      1.0000 0.37434  0.47773  0.14805  Biso   1.000  Ir
  Ir8      1.0000 0.18893  0.22994  0.48138  Biso   1.000  Ir
  Ir9      1.0000 0.43672  0.29232  0.81471  Biso   1.000  Ir
  Ir10     1.0000 0.29232  0.85560  0.18529  Biso   1.000  Ir
  Ir11     1.0000 0.47773  0.10339  0.85195  Biso   1.000  Ir
  Ir12     1.0000 0.22994  0.04101  0.51862  Biso   1.000  Ir
  Ir13     1.0000 0.88686  0.52716  0.38360  Biso   1.000  Ir
  Ir14     1.0000 0.13951  0.69303  0.71693  Biso   1.000  Ir
  Ir15     1.0000 0.97363  0.77981  0.05026  Biso   1.000  Ir
  Ir16     1.0000 0.11314  0.47284  0.61640  Biso   1.000  Ir
  Ir17     1.0000 0.86049  0.30696  0.28307  Biso   1.000  Ir
  Ir18     1.0000 0.02637  0.22019  0.94974  Biso   1.000  Ir
  Ir19     1.0000 0.04101  0.81107  0.48138  Biso   1.000  Ir
  Ir20     1.0000 0.85560  0.56328  0.81471  Biso   1.000  Ir
  Ir21     1.0000 0.10339  0.62566  0.14805  Biso   1.000  Ir
  Ir22     1.0000 0.95899  0.18893  0.51862  Biso   1.000  Ir
  Ir23     1.0000 0.14440  0.43672  0.18529  Biso   1.000  Ir
  Ir24     1.0000 0.89661  0.37434  0.85195  Biso   1.000  Ir
  Ir25     1.0000 0.55353  0.86049  0.71693  Biso   1.000  Ir
  Ir26     1.0000 0.80617  0.02637  0.05026  Biso   1.000  Ir
  Ir27     1.0000 0.64030  0.11314  0.38360  Biso   1.000  Ir
  Ir28     1.0000 0.77981  0.80617  0.94974  Biso   1.000  Ir
  Ir29     1.0000 0.52716  0.64030  0.61640  Biso   1.000  Ir
  Ir30     1.0000 0.69304  0.55353  0.28307  Biso   1.000  Ir
  Ir31     1.0000 0.70768  0.14440  0.81471  Biso   1.000  Ir
  Ir32     1.0000 0.52227  0.89661  0.14805  Biso   1.000  Ir
  Ir33     1.0000 0.77006  0.95899  0.48138  Biso   1.000  Ir
  Ir34     1.0000 0.62566  0.52227  0.85195  Biso   1.000  Ir
  Ir35     1.0000 0.81107  0.77006  0.51862  Biso   1.000  Ir
  Ir36     1.0000 0.56328  0.70768  0.18529  Biso   1.000  Ir
