data_image0
_cell_length_a       6.56032
_cell_length_b       6.6099
_cell_length_c       6.90605
_cell_angle_alpha    117.477
_cell_angle_beta     95.8074
_cell_angle_gamma    104.826

_symmetry_space_group_name_H-M    "P 1"
_symmetry_int_tables_number       1

loop_
  _symmetry_equiv_pos_as_xyz
  'x, y, z'

loop_
  _atom_site_label
  _atom_site_occupancy
  _atom_site_fract_x
  _atom_site_fract_y
  _atom_site_fract_z
  _atom_site_thermal_displace_type
  _atom_site_B_iso_or_equiv
  _atom_site_type_symbol
  O1       1.0000 0.49168  0.12780  0.31221  Biso   1.000  O
  O2       1.0000 0.50831  0.87220  0.68779  Biso   1.000  O
  O3       1.0000 0.50000  0.50000  0.00000  Biso   1.000  O
  O4       1.0000 0.00000  0.00000  0.00000  Biso   1.000  O
  Ir1      1.0000 0.62953  0.86328  0.00890  Biso   1.000  Ir
  Ir2      1.0000 0.37047  0.13672  0.99110  Biso   1.000  Ir
