data_image0
_cell_length_a       20.4972
_cell_length_b       20.4972
_cell_length_c       4.7505
_cell_angle_alpha    90
_cell_angle_beta     90
_cell_angle_gamma    120

_symmetry_space_group_name_H-M    "P 1"
_symmetry_int_tables_number       1

loop_
  _symmetry_equiv_pos_as_xyz
  'x, y, z'

loop_
  _atom_site_label
  _atom_site_occupancy
  _atom_site_fract_x
  _atom_site_fract_y
  _atom_site_fract_z
  _atom_site_thermal_displace_type
  _atom_site_B_iso_or_equiv
  _atom_site_type_symbol
  O1       1.0000 0.83333  0.16667  0.66667  Biso   1.000  O
  O2       1.0000 0.83333  0.66667  0.66667  Biso   1.000  O
  O3       1.0000 0.00000  0.50000  0.00000  Biso   1.000  O
  O4       1.0000 0.83333  0.66667  0.16667  Biso   1.000  O
  O5       1.0000 0.83333  0.16667  0.16667  Biso   1.000  O
  O6       1.0000 0.00000  0.50000  0.50000  Biso   1.000  O
  O7       1.0000 0.07323  0.40656  0.91667  Biso   1.000  O
  O8       1.0000 0.92677  0.33333  0.58333  Biso   1.000  O
  O9       1.0000 0.00000  0.26010  0.25000  Biso   1.000  O
  O10      1.0000 0.92677  0.59344  0.08333  Biso   1.000  O
  O11      1.0000 0.07323  0.66667  0.41667  Biso   1.000  O
  O12      1.0000 0.00000  0.73990  0.75000  Biso   1.000  O
  O13      1.0000 0.50000  0.50000  0.00000  Biso   1.000  O
  O14      1.0000 0.50000  0.00000  0.00000  Biso   1.000  O
  O15      1.0000 0.66667  0.83333  0.33333  Biso   1.000  O
  O16      1.0000 0.50000  0.00000  0.50000  Biso   1.000  O
  O17      1.0000 0.50000  0.50000  0.50000  Biso   1.000  O
  O18      1.0000 0.66667  0.83333  0.83333  Biso   1.000  O
  O19      1.0000 0.73990  0.73990  0.25000  Biso   1.000  O
  O20      1.0000 0.59344  0.66667  0.91667  Biso   1.000  O
  O21      1.0000 0.66667  0.59344  0.58333  Biso   1.000  O
  O22      1.0000 0.59344  0.92677  0.41667  Biso   1.000  O
  O23      1.0000 0.73990  0.00000  0.75000  Biso   1.000  O
  O24      1.0000 0.66667  0.07323  0.08333  Biso   1.000  O
  O25      1.0000 0.16667  0.83333  0.33333  Biso   1.000  O
  O26      1.0000 0.16667  0.33333  0.33333  Biso   1.000  O
  O27      1.0000 0.33333  0.16667  0.66667  Biso   1.000  O
  O28      1.0000 0.16667  0.33333  0.83333  Biso   1.000  O
  O29      1.0000 0.16667  0.83333  0.83333  Biso   1.000  O
  O30      1.0000 0.33333  0.16667  0.16667  Biso   1.000  O
  O31      1.0000 0.40656  0.07323  0.58333  Biso   1.000  O
  O32      1.0000 0.26010  0.00000  0.25000  Biso   1.000  O
  O33      1.0000 0.33333  0.92677  0.91667  Biso   1.000  O
  O34      1.0000 0.26010  0.26010  0.75000  Biso   1.000  O
  O35      1.0000 0.40656  0.33333  0.08333  Biso   1.000  O
  O36      1.0000 0.33333  0.40656  0.41667  Biso   1.000  O
  Ir1      1.0000 0.09928  0.76594  0.58333  Biso   1.000  Ir
  Ir2      1.0000 0.90072  0.66667  0.91667  Biso   1.000  Ir
  Ir3      1.0000 0.00000  0.56739  0.25000  Biso   1.000  Ir
  Ir4      1.0000 0.90072  0.23406  0.41667  Biso   1.000  Ir
  Ir5      1.0000 0.09928  0.33333  0.08333  Biso   1.000  Ir
  Ir6      1.0000 0.00000  0.43261  0.75000  Biso   1.000  Ir
  Ir7      1.0000 0.76594  0.09928  0.91667  Biso   1.000  Ir
  Ir8      1.0000 0.56739  0.00000  0.25000  Biso   1.000  Ir
  Ir9      1.0000 0.66667  0.90072  0.58333  Biso   1.000  Ir
  Ir10     1.0000 0.56739  0.56739  0.75000  Biso   1.000  Ir
  Ir11     1.0000 0.76594  0.66667  0.41667  Biso   1.000  Ir
  Ir12     1.0000 0.66667  0.76594  0.08333  Biso   1.000  Ir
  Ir13     1.0000 0.43261  0.43261  0.25000  Biso   1.000  Ir
  Ir14     1.0000 0.23406  0.33333  0.58333  Biso   1.000  Ir
  Ir15     1.0000 0.33333  0.23406  0.91667  Biso   1.000  Ir
  Ir16     1.0000 0.23406  0.90072  0.08333  Biso   1.000  Ir
  Ir17     1.0000 0.43261  0.00000  0.75000  Biso   1.000  Ir
  Ir18     1.0000 0.33333  0.09928  0.41667  Biso   1.000  Ir
