data_image0
_cell_length_a       19.1543
_cell_length_b       29.6198
_cell_length_c       3.63772
_cell_angle_alpha    90
_cell_angle_beta     90
_cell_angle_gamma    90

_symmetry_space_group_name_H-M    "P 1"
_symmetry_int_tables_number       1

loop_
  _symmetry_equiv_pos_as_xyz
  'x, y, z'

loop_
  _atom_site_label
  _atom_site_occupancy
  _atom_site_fract_x
  _atom_site_fract_y
  _atom_site_fract_z
  _atom_site_thermal_displace_type
  _atom_site_B_iso_or_equiv
  _atom_site_type_symbol
  Ir1      1.0000 0.00000  0.84470  0.00000  Biso   1.000  Ir
  Ir2      1.0000 0.00000  0.15530  0.00000  Biso   1.000  Ir
  Ir3      1.0000 0.89312  0.28489  0.50000  Biso   1.000  Ir
  Ir4      1.0000 0.10688  0.71511  0.50000  Biso   1.000  Ir
  Ir5      1.0000 0.10688  0.28489  0.50000  Biso   1.000  Ir
  Ir6      1.0000 0.89312  0.71511  0.50000  Biso   1.000  Ir
  Ir7      1.0000 0.29414  0.66688  0.50000  Biso   1.000  Ir
  Ir8      1.0000 0.70586  0.33311  0.50000  Biso   1.000  Ir
  Ir9      1.0000 0.70586  0.66688  0.50000  Biso   1.000  Ir
  Ir10     1.0000 0.29414  0.33311  0.50000  Biso   1.000  Ir
  Ir11     1.0000 0.14951  0.56892  0.00000  Biso   1.000  Ir
  Ir12     1.0000 0.85049  0.43108  0.00000  Biso   1.000  Ir
  Ir13     1.0000 0.85049  0.56892  0.00000  Biso   1.000  Ir
  Ir14     1.0000 0.14951  0.43108  0.00000  Biso   1.000  Ir
  Ir15     1.0000 0.35511  0.56310  0.00000  Biso   1.000  Ir
  Ir16     1.0000 0.64489  0.43690  0.00000  Biso   1.000  Ir
  Ir17     1.0000 0.64489  0.56310  0.00000  Biso   1.000  Ir
  Ir18     1.0000 0.35511  0.43690  0.00000  Biso   1.000  Ir
  Ir19     1.0000 0.50000  0.34470  0.00000  Biso   1.000  Ir
  Ir20     1.0000 0.50000  0.65530  0.00000  Biso   1.000  Ir
  Ir21     1.0000 0.39312  0.78489  0.50000  Biso   1.000  Ir
  Ir22     1.0000 0.60688  0.21511  0.50000  Biso   1.000  Ir
  Ir23     1.0000 0.60688  0.78489  0.50000  Biso   1.000  Ir
  Ir24     1.0000 0.39312  0.21511  0.50000  Biso   1.000  Ir
  Ir25     1.0000 0.79414  0.16689  0.50000  Biso   1.000  Ir
  Ir26     1.0000 0.20586  0.83311  0.50000  Biso   1.000  Ir
  Ir27     1.0000 0.20586  0.16689  0.50000  Biso   1.000  Ir
  Ir28     1.0000 0.79414  0.83311  0.50000  Biso   1.000  Ir
  Ir29     1.0000 0.64951  0.06892  0.00000  Biso   1.000  Ir
  Ir30     1.0000 0.35049  0.93108  0.00000  Biso   1.000  Ir
  Ir31     1.0000 0.35049  0.06892  0.00000  Biso   1.000  Ir
  Ir32     1.0000 0.64951  0.93108  0.00000  Biso   1.000  Ir
  Ir33     1.0000 0.85511  0.06310  0.00000  Biso   1.000  Ir
  Ir34     1.0000 0.14489  0.93690  0.00000  Biso   1.000  Ir
  Ir35     1.0000 0.14489  0.06310  0.00000  Biso   1.000  Ir
  Ir36     1.0000 0.85511  0.93690  0.00000  Biso   1.000  Ir
  O1       1.0000 0.08055  0.61877  0.50000  Biso   1.000  O
  O2       1.0000 0.91945  0.38123  0.50000  Biso   1.000  O
  O3       1.0000 0.91945  0.61877  0.50000  Biso   1.000  O
  O4       1.0000 0.08055  0.38123  0.50000  Biso   1.000  O
  O5       1.0000 0.75061  0.50000  0.00000  Biso   1.000  O
  O6       1.0000 0.24939  0.50000  0.00000  Biso   1.000  O
  O7       1.0000 0.60662  0.50000  0.50000  Biso   1.000  O
  O8       1.0000 0.39338  0.50000  0.50000  Biso   1.000  O
  O9       1.0000 0.88423  0.50000  0.50000  Biso   1.000  O
  O10      1.0000 0.11578  0.50000  0.50000  Biso   1.000  O
  O11      1.0000 0.00000  0.05782  0.00000  Biso   1.000  O
  O12      1.0000 0.00000  0.94218  0.00000  Biso   1.000  O
  O13      1.0000 0.00000  0.30759  0.00000  Biso   1.000  O
  O14      1.0000 0.00000  0.69241  0.00000  Biso   1.000  O
  O15      1.0000 0.00000  0.44779  0.00000  Biso   1.000  O
  O16      1.0000 0.00000  0.55221  0.00000  Biso   1.000  O
  O17      1.0000 0.00000  0.22115  0.50000  Biso   1.000  O
  O18      1.0000 0.00000  0.77885  0.50000  Biso   1.000  O
  O19      1.0000 0.75000  0.25000  0.50000  Biso   1.000  O
  O20      1.0000 0.25000  0.25000  0.50000  Biso   1.000  O
  O21      1.0000 0.91035  0.12122  0.50000  Biso   1.000  O
  O22      1.0000 0.08965  0.87877  0.50000  Biso   1.000  O
  O23      1.0000 0.08965  0.12122  0.50000  Biso   1.000  O
  O24      1.0000 0.91035  0.87877  0.50000  Biso   1.000  O
  O25      1.0000 0.25206  0.58265  0.50000  Biso   1.000  O
  O26      1.0000 0.74794  0.41735  0.50000  Biso   1.000  O
  O27      1.0000 0.74794  0.58265  0.50000  Biso   1.000  O
  O28      1.0000 0.25206  0.41735  0.50000  Biso   1.000  O
  O29      1.0000 0.81131  0.32995  0.00000  Biso   1.000  O
  O30      1.0000 0.18869  0.67005  0.00000  Biso   1.000  O
  O31      1.0000 0.18869  0.32995  0.00000  Biso   1.000  O
  O32      1.0000 0.81131  0.67005  0.00000  Biso   1.000  O
  O33      1.0000 0.87014  0.21585  0.00000  Biso   1.000  O
  O34      1.0000 0.12986  0.78415  0.00000  Biso   1.000  O
  O35      1.0000 0.12986  0.21585  0.00000  Biso   1.000  O
  O36      1.0000 0.87014  0.78415  0.00000  Biso   1.000  O
  O37      1.0000 0.58055  0.11876  0.50000  Biso   1.000  O
  O38      1.0000 0.41945  0.88123  0.50000  Biso   1.000  O
  O39      1.0000 0.41945  0.11876  0.50000  Biso   1.000  O
  O40      1.0000 0.58055  0.88123  0.50000  Biso   1.000  O
  O41      1.0000 0.25061  0.00000  0.00000  Biso   1.000  O
  O42      1.0000 0.74939  0.00000  0.00000  Biso   1.000  O
  O43      1.0000 0.10662  0.00000  0.50000  Biso   1.000  O
  O44      1.0000 0.89338  0.00000  0.50000  Biso   1.000  O
  O45      1.0000 0.38422  0.00000  0.50000  Biso   1.000  O
  O46      1.0000 0.61577  0.00000  0.50000  Biso   1.000  O
  O47      1.0000 0.50000  0.55782  0.00000  Biso   1.000  O
  O48      1.0000 0.50000  0.44218  0.00000  Biso   1.000  O
  O49      1.0000 0.50000  0.80759  0.00000  Biso   1.000  O
  O50      1.0000 0.50000  0.19241  0.00000  Biso   1.000  O
  O51      1.0000 0.50000  0.94779  0.00000  Biso   1.000  O
  O52      1.0000 0.50000  0.05221  0.00000  Biso   1.000  O
  O53      1.0000 0.50000  0.72115  0.50000  Biso   1.000  O
  O54      1.0000 0.50000  0.27886  0.50000  Biso   1.000  O
  O55      1.0000 0.25000  0.75000  0.50000  Biso   1.000  O
  O56      1.0000 0.75000  0.75000  0.50000  Biso   1.000  O
  O57      1.0000 0.41035  0.62123  0.50000  Biso   1.000  O
  O58      1.0000 0.58965  0.37878  0.50000  Biso   1.000  O
  O59      1.0000 0.58965  0.62123  0.50000  Biso   1.000  O
  O60      1.0000 0.41035  0.37878  0.50000  Biso   1.000  O
  O61      1.0000 0.75206  0.08265  0.50000  Biso   1.000  O
  O62      1.0000 0.24794  0.91735  0.50000  Biso   1.000  O
  O63      1.0000 0.24794  0.08265  0.50000  Biso   1.000  O
  O64      1.0000 0.75206  0.91735  0.50000  Biso   1.000  O
  O65      1.0000 0.31131  0.82995  0.00000  Biso   1.000  O
  O66      1.0000 0.68869  0.17005  0.00000  Biso   1.000  O
  O67      1.0000 0.68869  0.82995  0.00000  Biso   1.000  O
  O68      1.0000 0.31131  0.17005  0.00000  Biso   1.000  O
  O69      1.0000 0.37014  0.71585  0.00000  Biso   1.000  O
  O70      1.0000 0.62986  0.28415  0.00000  Biso   1.000  O
  O71      1.0000 0.62986  0.71585  0.00000  Biso   1.000  O
  O72      1.0000 0.37014  0.28415  0.00000  Biso   1.000  O
