data_image0
_cell_length_a       9.61696
_cell_length_b       9.61696
_cell_length_c       12.3354
_cell_angle_alpha    90
_cell_angle_beta     90
_cell_angle_gamma    120

_symmetry_space_group_name_H-M    "P 1"
_symmetry_int_tables_number       1

loop_
  _symmetry_equiv_pos_as_xyz
  'x, y, z'

loop_
  _atom_site_label
  _atom_site_occupancy
  _atom_site_fract_x
  _atom_site_fract_y
  _atom_site_fract_z
  _atom_site_thermal_displace_type
  _atom_site_B_iso_or_equiv
  _atom_site_type_symbol
  Ir1      1.0000 0.49944  0.50057  0.25010  Biso   1.000  Ir
  Ir2      1.0000 0.49944  0.99887  0.25010  Biso   1.000  Ir
  Ir3      1.0000 0.00113  0.50057  0.25010  Biso   1.000  Ir
  Ir4      1.0000 0.50057  0.49943  0.74990  Biso   1.000  Ir
  Ir5      1.0000 0.99887  0.49943  0.74990  Biso   1.000  Ir
  Ir6      1.0000 0.50057  0.00113  0.74990  Biso   1.000  Ir
  Ir7      1.0000 0.00000  0.00000  0.24932  Biso   1.000  Ir
  Ir8      1.0000 0.00000  0.00000  0.75068  Biso   1.000  Ir
  O1       1.0000 0.16674  0.83326  0.12381  Biso   1.000  O
  O2       1.0000 0.16674  0.33347  0.12381  Biso   1.000  O
  O3       1.0000 0.66653  0.83326  0.12381  Biso   1.000  O
  O4       1.0000 0.83326  0.16674  0.87619  Biso   1.000  O
  O5       1.0000 0.33347  0.16674  0.87619  Biso   1.000  O
  O6       1.0000 0.83326  0.66653  0.87619  Biso   1.000  O
  O7       1.0000 0.16649  0.83351  0.62447  Biso   1.000  O
  O8       1.0000 0.16649  0.33298  0.62447  Biso   1.000  O
  O9       1.0000 0.66702  0.83351  0.62447  Biso   1.000  O
  O10      1.0000 0.83351  0.16649  0.37553  Biso   1.000  O
  O11      1.0000 0.33298  0.16649  0.37553  Biso   1.000  O
  O12      1.0000 0.83351  0.66702  0.37553  Biso   1.000  O
  O13      1.0000 0.33333  0.66667  0.37682  Biso   1.000  O
  O14      1.0000 0.66667  0.33333  0.62318  Biso   1.000  O
  O15      1.0000 0.33333  0.66667  0.87497  Biso   1.000  O
  O16      1.0000 0.66667  0.33333  0.12503  Biso   1.000  O
