data_image0
_cell_length_a       5.71703
_cell_length_b       6.75545
_cell_length_c       5.97637
_cell_angle_alpha    90
_cell_angle_beta     104.827
_cell_angle_gamma    90

_symmetry_space_group_name_H-M    "P 1"
_symmetry_int_tables_number       1

loop_
  _symmetry_equiv_pos_as_xyz
  'x, y, z'

loop_
  _atom_site_label
  _atom_site_occupancy
  _atom_site_fract_x
  _atom_site_fract_y
  _atom_site_fract_z
  _atom_site_thermal_displace_type
  _atom_site_B_iso_or_equiv
  _atom_site_type_symbol
  O1       1.0000 0.13655  0.25867  0.90480  Biso   1.000  O
  O2       1.0000 0.13655  0.74133  0.90480  Biso   1.000  O
  O3       1.0000 0.63653  0.50000  0.80701  Biso   1.000  O
  O4       1.0000 0.68299  0.00000  0.78021  Biso   1.000  O
  O5       1.0000 0.13242  0.00000  0.47599  Biso   1.000  O
  O6       1.0000 0.10735  0.50000  0.34031  Biso   1.000  O
  O7       1.0000 0.57145  0.25040  0.33899  Biso   1.000  O
  O8       1.0000 0.57145  0.74960  0.33899  Biso   1.000  O
  Ir1      1.0000 0.98267  0.50000  0.99159  Biso   1.000  Ir
  Ir2      1.0000 0.02668  0.00000  0.77041  Biso   1.000  Ir
  Ir3      1.0000 0.47094  0.50000  0.46720  Biso   1.000  Ir
  Ir4      1.0000 0.47231  0.00000  0.46269  Biso   1.000  Ir
