data_image0
_cell_length_a       12.1912
_cell_length_b       4.46625
_cell_length_c       12.2248
_cell_angle_alpha    90
_cell_angle_beta     101.106
_cell_angle_gamma    90

_symmetry_space_group_name_H-M    "P 1"
_symmetry_int_tables_number       1

loop_
  _symmetry_equiv_pos_as_xyz
  'x, y, z'

loop_
  _atom_site_label
  _atom_site_occupancy
  _atom_site_fract_x
  _atom_site_fract_y
  _atom_site_fract_z
  _atom_site_thermal_displace_type
  _atom_site_B_iso_or_equiv
  _atom_site_type_symbol
  Ir1      1.0000 0.11987  0.25000  0.41078  Biso   1.000  Ir
  Ir2      1.0000 0.88013  0.75000  0.58922  Biso   1.000  Ir
  Ir3      1.0000 0.44131  0.25000  0.73300  Biso   1.000  Ir
  Ir4      1.0000 0.55869  0.75000  0.26700  Biso   1.000  Ir
  Ir5      1.0000 0.78485  0.25000  0.06056  Biso   1.000  Ir
  Ir6      1.0000 0.21515  0.75000  0.93944  Biso   1.000  Ir
  O1       1.0000 0.42980  0.25000  0.44843  Biso   1.000  O
  O2       1.0000 0.57020  0.75000  0.55157  Biso   1.000  O
  O3       1.0000 0.79126  0.25000  0.36775  Biso   1.000  O
  O4       1.0000 0.20874  0.75000  0.63225  Biso   1.000  O
  O5       1.0000 0.09522  0.25000  0.72721  Biso   1.000  O
  O6       1.0000 0.90478  0.75000  0.27279  Biso   1.000  O
  O7       1.0000 0.75496  0.25000  0.77389  Biso   1.000  O
  O8       1.0000 0.24504  0.75000  0.22611  Biso   1.000  O
  O9       1.0000 0.10040  0.25000  0.12925  Biso   1.000  O
  O10      1.0000 0.89960  0.75000  0.87075  Biso   1.000  O
  O11      1.0000 0.44566  0.25000  0.04965  Biso   1.000  O
  O12      1.0000 0.55434  0.75000  0.95035  Biso   1.000  O
