data_image0
_cell_length_a       5.51304
_cell_length_b       5.54545
_cell_length_c       5.95241
_cell_angle_alpha    111.243
_cell_angle_beta     102.94
_cell_angle_gamma    99.9314

_symmetry_space_group_name_H-M    "P 1"
_symmetry_int_tables_number       1

loop_
  _symmetry_equiv_pos_as_xyz
  'x, y, z'

loop_
  _atom_site_label
  _atom_site_occupancy
  _atom_site_fract_x
  _atom_site_fract_y
  _atom_site_fract_z
  _atom_site_thermal_displace_type
  _atom_site_B_iso_or_equiv
  _atom_site_type_symbol
  O1       1.0000 0.50000  0.00000  0.50000  Biso   1.000  O
  O2       1.0000 0.63416  0.63987  0.88371  Biso   1.000  O
  O3       1.0000 0.36583  0.36013  0.11629  Biso   1.000  O
  O4       1.0000 0.00000  0.00000  0.00000  Biso   1.000  O
  Ir1      1.0000 0.32907  0.88826  0.16274  Biso   1.000  Ir
  Ir2      1.0000 0.67093  0.11174  0.83726  Biso   1.000  Ir
