data_image0
_cell_length_a       9.71669
_cell_length_b       10.3607
_cell_length_c       10.533
_cell_angle_alpha    73.927
_cell_angle_beta     71.3732
_cell_angle_gamma    75.2325

_symmetry_space_group_name_H-M    "P 1"
_symmetry_int_tables_number       1

loop_
  _symmetry_equiv_pos_as_xyz
  'x, y, z'

loop_
  _atom_site_label
  _atom_site_occupancy
  _atom_site_fract_x
  _atom_site_fract_y
  _atom_site_fract_z
  _atom_site_thermal_displace_type
  _atom_site_B_iso_or_equiv
  _atom_site_type_symbol
  O1       1.0000 0.91795  0.27476  0.06964  Biso   1.000  O
  O2       1.0000 0.08205  0.72524  0.93036  Biso   1.000  O
  O3       1.0000 0.99072  0.97717  0.29452  Biso   1.000  O
  O4       1.0000 0.00928  0.02283  0.70547  Biso   1.000  O
  O5       1.0000 0.21543  0.05061  0.99727  Biso   1.000  O
  O6       1.0000 0.78457  0.94939  0.00273  Biso   1.000  O
  O7       1.0000 0.68927  0.19905  0.36611  Biso   1.000  O
  O8       1.0000 0.31073  0.80095  0.63389  Biso   1.000  O
  O9       1.0000 0.28989  0.74743  0.21897  Biso   1.000  O
  O10      1.0000 0.71011  0.25257  0.78103  Biso   1.000  O
  O11      1.0000 0.14181  0.34829  0.76728  Biso   1.000  O
  O12      1.0000 0.85819  0.65171  0.23272  Biso   1.000  O
  O13      1.0000 0.60072  0.49215  0.13198  Biso   1.000  O
  O14      1.0000 0.39928  0.50785  0.86802  Biso   1.000  O
  O15      1.0000 0.06431  0.65153  0.50934  Biso   1.000  O
  O16      1.0000 0.93570  0.34847  0.49066  Biso   1.000  O
  O17      1.0000 0.44193  0.11566  0.66777  Biso   1.000  O
  O18      1.0000 0.55807  0.88434  0.33223  Biso   1.000  O
  O19      1.0000 0.83998  0.57273  0.81455  Biso   1.000  O
  O20      1.0000 0.16002  0.42727  0.18545  Biso   1.000  O
  O21      1.0000 0.74718  0.89120  0.58912  Biso   1.000  O
  O22      1.0000 0.25282  0.10880  0.41088  Biso   1.000  O
  O23      1.0000 0.52126  0.79864  0.90958  Biso   1.000  O
  O24      1.0000 0.47874  0.20136  0.09042  Biso   1.000  O
  O25      1.0000 0.36956  0.42042  0.43754  Biso   1.000  O
  O26      1.0000 0.63044  0.57958  0.56246  Biso   1.000  O
  Ir1      1.0000 0.00000  0.00000  0.00000  Biso   1.000  Ir
  Ir2      1.0000 0.93080  0.28333  0.78541  Biso   1.000  Ir
  Ir3      1.0000 0.06920  0.71667  0.21459  Biso   1.000  Ir
  Ir4      1.0000 0.78578  0.93009  0.28278  Biso   1.000  Ir
  Ir5      1.0000 0.21422  0.06991  0.71722  Biso   1.000  Ir
  Ir6      1.0000 0.71704  0.21402  0.06882  Biso   1.000  Ir
  Ir7      1.0000 0.28297  0.78598  0.93118  Biso   1.000  Ir
  Ir8      1.0000 0.63968  0.51253  0.84843  Biso   1.000  Ir
  Ir9      1.0000 0.36033  0.48747  0.15157  Biso   1.000  Ir
  Ir10     1.0000 0.84830  0.63943  0.51192  Biso   1.000  Ir
  Ir11     1.0000 0.15170  0.36057  0.48808  Biso   1.000  Ir
  Ir12     1.0000 0.48718  0.15132  0.35906  Biso   1.000  Ir
  Ir13     1.0000 0.51282  0.84868  0.64094  Biso   1.000  Ir
