data_image0
_cell_length_a       22.3106
_cell_length_b       16.7298
_cell_length_c       11.814
_cell_angle_alpha    90
_cell_angle_beta     90
_cell_angle_gamma    90

_symmetry_space_group_name_H-M    "P 1"
_symmetry_int_tables_number       1

loop_
  _symmetry_equiv_pos_as_xyz
  'x, y, z'

loop_
  _atom_site_label
  _atom_site_occupancy
  _atom_site_fract_x
  _atom_site_fract_y
  _atom_site_fract_z
  _atom_site_thermal_displace_type
  _atom_site_B_iso_or_equiv
  _atom_site_type_symbol
  O1       1.0000 0.60953  0.97702  0.77276  Biso   1.000  O
  O2       1.0000 0.89046  0.02298  0.27276  Biso   1.000  O
  O3       1.0000 0.89046  0.97702  0.72724  Biso   1.000  O
  O4       1.0000 0.60953  0.02298  0.22724  Biso   1.000  O
  O5       1.0000 0.39047  0.02298  0.22724  Biso   1.000  O
  O6       1.0000 0.10953  0.97702  0.72724  Biso   1.000  O
  O7       1.0000 0.10953  0.02298  0.27276  Biso   1.000  O
  O8       1.0000 0.39047  0.97702  0.77276  Biso   1.000  O
  O9       1.0000 0.89917  0.00000  0.00000  Biso   1.000  O
  O10      1.0000 0.60083  0.00000  0.50000  Biso   1.000  O
  O11      1.0000 0.10083  0.00000  0.00000  Biso   1.000  O
  O12      1.0000 0.39917  0.00000  0.50000  Biso   1.000  O
  O13      1.0000 0.50000  0.90003  0.63728  Biso   1.000  O
  O14      1.0000 0.50000  0.59997  0.13728  Biso   1.000  O
  O15      1.0000 0.50000  0.40003  0.86272  Biso   1.000  O
  O16      1.0000 0.50000  0.09997  0.36272  Biso   1.000  O
  O17      1.0000 0.62922  0.82607  0.60472  Biso   1.000  O
  O18      1.0000 0.37078  0.67393  0.10473  Biso   1.000  O
  O19      1.0000 0.37078  0.32607  0.89528  Biso   1.000  O
  O20      1.0000 0.62922  0.17393  0.39528  Biso   1.000  O
  O21      1.0000 0.37078  0.17393  0.39528  Biso   1.000  O
  O22      1.0000 0.62922  0.32607  0.89528  Biso   1.000  O
  O23      1.0000 0.62922  0.67393  0.10473  Biso   1.000  O
  O24      1.0000 0.37078  0.82607  0.60472  Biso   1.000  O
  O25      1.0000 0.66773  0.85174  0.17189  Biso   1.000  O
  O26      1.0000 0.83227  0.14825  0.67189  Biso   1.000  O
  O27      1.0000 0.83227  0.85174  0.32811  Biso   1.000  O
  O28      1.0000 0.66773  0.14825  0.82811  Biso   1.000  O
  O29      1.0000 0.33227  0.14825  0.82811  Biso   1.000  O
  O30      1.0000 0.16773  0.85174  0.32811  Biso   1.000  O
  O31      1.0000 0.16773  0.14825  0.67189  Biso   1.000  O
  O32      1.0000 0.33227  0.85174  0.17189  Biso   1.000  O
  O33      1.0000 0.75000  0.99756  0.25000  Biso   1.000  O
  O34      1.0000 0.75000  0.00243  0.75000  Biso   1.000  O
  O35      1.0000 0.25000  0.00243  0.75000  Biso   1.000  O
  O36      1.0000 0.25000  0.99756  0.25000  Biso   1.000  O
  O37      1.0000 0.68871  0.00000  0.00000  Biso   1.000  O
  O38      1.0000 0.81129  0.00000  0.50000  Biso   1.000  O
  O39      1.0000 0.31129  0.00000  0.00000  Biso   1.000  O
  O40      1.0000 0.18871  0.00000  0.50000  Biso   1.000  O
  O41      1.0000 0.25000  0.25000  0.00000  Biso   1.000  O
  O42      1.0000 0.25000  0.75000  0.50000  Biso   1.000  O
  O43      1.0000 0.25000  0.25000  0.50000  Biso   1.000  O
  O44      1.0000 0.25000  0.75000  0.00000  Biso   1.000  O
  O45      1.0000 0.75000  0.20108  0.25000  Biso   1.000  O
  O46      1.0000 0.75000  0.79892  0.75000  Biso   1.000  O
  O47      1.0000 0.25000  0.79892  0.75000  Biso   1.000  O
  O48      1.0000 0.25000  0.20108  0.25000  Biso   1.000  O
  O49      1.0000 0.10953  0.47702  0.77276  Biso   1.000  O
  O50      1.0000 0.39047  0.52298  0.27276  Biso   1.000  O
  O51      1.0000 0.39047  0.47702  0.72724  Biso   1.000  O
  O52      1.0000 0.10953  0.52298  0.22724  Biso   1.000  O
  O53      1.0000 0.89046  0.52298  0.22724  Biso   1.000  O
  O54      1.0000 0.60953  0.47702  0.72724  Biso   1.000  O
  O55      1.0000 0.60953  0.52298  0.27276  Biso   1.000  O
  O56      1.0000 0.89046  0.47702  0.77276  Biso   1.000  O
  O57      1.0000 0.39917  0.50000  0.00000  Biso   1.000  O
  O58      1.0000 0.10083  0.50000  0.50000  Biso   1.000  O
  O59      1.0000 0.60083  0.50000  0.00000  Biso   1.000  O
  O60      1.0000 0.89917  0.50000  0.50000  Biso   1.000  O
  O61      1.0000 0.00000  0.40003  0.63728  Biso   1.000  O
  O62      1.0000 0.00000  0.09997  0.13728  Biso   1.000  O
  O63      1.0000 0.00000  0.90003  0.86272  Biso   1.000  O
  O64      1.0000 0.00000  0.59997  0.36272  Biso   1.000  O
  O65      1.0000 0.12922  0.32607  0.60472  Biso   1.000  O
  O66      1.0000 0.87078  0.17393  0.10473  Biso   1.000  O
  O67      1.0000 0.87078  0.82607  0.89528  Biso   1.000  O
  O68      1.0000 0.12922  0.67393  0.39528  Biso   1.000  O
  O69      1.0000 0.87078  0.67393  0.39528  Biso   1.000  O
  O70      1.0000 0.12922  0.82607  0.89528  Biso   1.000  O
  O71      1.0000 0.12922  0.17393  0.10473  Biso   1.000  O
  O72      1.0000 0.87078  0.32607  0.60472  Biso   1.000  O
  O73      1.0000 0.16773  0.35174  0.17189  Biso   1.000  O
  O74      1.0000 0.33227  0.64825  0.67189  Biso   1.000  O
  O75      1.0000 0.33227  0.35174  0.32811  Biso   1.000  O
  O76      1.0000 0.16773  0.64825  0.82811  Biso   1.000  O
  O77      1.0000 0.83227  0.64825  0.82811  Biso   1.000  O
  O78      1.0000 0.66773  0.35174  0.32811  Biso   1.000  O
  O79      1.0000 0.66773  0.64825  0.67189  Biso   1.000  O
  O80      1.0000 0.83227  0.35174  0.17189  Biso   1.000  O
  O81      1.0000 0.25000  0.49756  0.25000  Biso   1.000  O
  O82      1.0000 0.25000  0.50243  0.75000  Biso   1.000  O
  O83      1.0000 0.75000  0.50243  0.75000  Biso   1.000  O
  O84      1.0000 0.75000  0.49756  0.25000  Biso   1.000  O
  O85      1.0000 0.18871  0.50000  0.00000  Biso   1.000  O
  O86      1.0000 0.31129  0.50000  0.50000  Biso   1.000  O
  O87      1.0000 0.81129  0.50000  0.00000  Biso   1.000  O
  O88      1.0000 0.68871  0.50000  0.50000  Biso   1.000  O
  O89      1.0000 0.75000  0.75000  0.00000  Biso   1.000  O
  O90      1.0000 0.75000  0.25000  0.50000  Biso   1.000  O
  O91      1.0000 0.75000  0.75000  0.50000  Biso   1.000  O
  O92      1.0000 0.75000  0.25000  0.00000  Biso   1.000  O
  O93      1.0000 0.25000  0.70108  0.25000  Biso   1.000  O
  O94      1.0000 0.25000  0.29892  0.75000  Biso   1.000  O
  O95      1.0000 0.75000  0.29892  0.75000  Biso   1.000  O
  O96      1.0000 0.75000  0.70108  0.25000  Biso   1.000  O
  Ir1      1.0000 0.58537  0.92676  0.62795  Biso   1.000  Ir
  Ir2      1.0000 0.91463  0.07324  0.12795  Biso   1.000  Ir
  Ir3      1.0000 0.91463  0.92676  0.87205  Biso   1.000  Ir
  Ir4      1.0000 0.58537  0.07324  0.37205  Biso   1.000  Ir
  Ir5      1.0000 0.41463  0.07324  0.37205  Biso   1.000  Ir
  Ir6      1.0000 0.08537  0.92676  0.87205  Biso   1.000  Ir
  Ir7      1.0000 0.08537  0.07324  0.12795  Biso   1.000  Ir
  Ir8      1.0000 0.41463  0.92676  0.62795  Biso   1.000  Ir
  Ir9      1.0000 0.67908  0.96813  0.15994  Biso   1.000  Ir
  Ir10     1.0000 0.82092  0.03187  0.65994  Biso   1.000  Ir
  Ir11     1.0000 0.82092  0.96813  0.34006  Biso   1.000  Ir
  Ir12     1.0000 0.67908  0.03187  0.84006  Biso   1.000  Ir
  Ir13     1.0000 0.32092  0.03187  0.84006  Biso   1.000  Ir
  Ir14     1.0000 0.17908  0.96813  0.34006  Biso   1.000  Ir
  Ir15     1.0000 0.17908  0.03187  0.65994  Biso   1.000  Ir
  Ir16     1.0000 0.32092  0.96813  0.15994  Biso   1.000  Ir
  Ir17     1.0000 0.30211  0.25535  0.86858  Biso   1.000  Ir
  Ir18     1.0000 0.69789  0.24465  0.36858  Biso   1.000  Ir
  Ir19     1.0000 0.69789  0.75535  0.63143  Biso   1.000  Ir
  Ir20     1.0000 0.30211  0.74465  0.13143  Biso   1.000  Ir
  Ir21     1.0000 0.69789  0.74465  0.13143  Biso   1.000  Ir
  Ir22     1.0000 0.30211  0.75535  0.63143  Biso   1.000  Ir
  Ir23     1.0000 0.30211  0.24465  0.36858  Biso   1.000  Ir
  Ir24     1.0000 0.69789  0.25535  0.86858  Biso   1.000  Ir
  Ir25     1.0000 0.08537  0.42676  0.62795  Biso   1.000  Ir
  Ir26     1.0000 0.41463  0.57324  0.12795  Biso   1.000  Ir
  Ir27     1.0000 0.41463  0.42676  0.87205  Biso   1.000  Ir
  Ir28     1.0000 0.08537  0.57324  0.37205  Biso   1.000  Ir
  Ir29     1.0000 0.91463  0.57324  0.37205  Biso   1.000  Ir
  Ir30     1.0000 0.58537  0.42676  0.87205  Biso   1.000  Ir
  Ir31     1.0000 0.58537  0.57324  0.12795  Biso   1.000  Ir
  Ir32     1.0000 0.91463  0.42676  0.62795  Biso   1.000  Ir
  Ir33     1.0000 0.17908  0.46813  0.15994  Biso   1.000  Ir
  Ir34     1.0000 0.32092  0.53187  0.65994  Biso   1.000  Ir
  Ir35     1.0000 0.32092  0.46813  0.34006  Biso   1.000  Ir
  Ir36     1.0000 0.17908  0.53187  0.84006  Biso   1.000  Ir
  Ir37     1.0000 0.82092  0.53187  0.84006  Biso   1.000  Ir
  Ir38     1.0000 0.67908  0.46813  0.34006  Biso   1.000  Ir
  Ir39     1.0000 0.67908  0.53187  0.65994  Biso   1.000  Ir
  Ir40     1.0000 0.82092  0.46813  0.15994  Biso   1.000  Ir
  Ir41     1.0000 0.80211  0.75535  0.86858  Biso   1.000  Ir
  Ir42     1.0000 0.19789  0.74465  0.36858  Biso   1.000  Ir
  Ir43     1.0000 0.19789  0.25535  0.63143  Biso   1.000  Ir
  Ir44     1.0000 0.80211  0.24465  0.13143  Biso   1.000  Ir
  Ir45     1.0000 0.19789  0.24465  0.13143  Biso   1.000  Ir
  Ir46     1.0000 0.80211  0.25535  0.63143  Biso   1.000  Ir
  Ir47     1.0000 0.80211  0.74465  0.36858  Biso   1.000  Ir
  Ir48     1.0000 0.19789  0.75535  0.86858  Biso   1.000  Ir
