data_image0
_cell_length_a       6.39161
_cell_length_b       41.8419
_cell_length_c       26.2191
_cell_angle_alpha    90
_cell_angle_beta     90
_cell_angle_gamma    90

_symmetry_space_group_name_H-M    "P 1"
_symmetry_int_tables_number       1

loop_
  _symmetry_equiv_pos_as_xyz
  'x, y, z'

loop_
  _atom_site_label
  _atom_site_occupancy
  _atom_site_fract_x
  _atom_site_fract_y
  _atom_site_fract_z
  _atom_site_thermal_displace_type
  _atom_site_B_iso_or_equiv
  _atom_site_type_symbol
  O1       1.0000 0.00000  0.05102  0.94654  Biso   1.000  O
  O2       1.0000 0.50000  0.44898  0.44654  Biso   1.000  O
  O3       1.0000 0.00000  0.05102  0.55346  Biso   1.000  O
  O4       1.0000 0.50000  0.44898  0.05346  Biso   1.000  O
  O5       1.0000 0.25024  0.08906  0.03397  Biso   1.000  O
  O6       1.0000 0.24975  0.41094  0.53397  Biso   1.000  O
  O7       1.0000 0.74975  0.08906  0.46603  Biso   1.000  O
  O8       1.0000 0.75025  0.41094  0.96603  Biso   1.000  O
  O9       1.0000 0.24975  0.41094  0.96603  Biso   1.000  O
  O10      1.0000 0.25024  0.08906  0.46603  Biso   1.000  O
  O11      1.0000 0.75025  0.41094  0.53397  Biso   1.000  O
  O12      1.0000 0.74975  0.08906  0.03397  Biso   1.000  O
  O13      1.0000 0.00000  0.02548  0.06255  Biso   1.000  O
  O14      1.0000 0.50000  0.47452  0.56255  Biso   1.000  O
  O15      1.0000 0.00000  0.02548  0.43745  Biso   1.000  O
  O16      1.0000 0.50000  0.47452  0.93745  Biso   1.000  O
  O17      1.0000 0.24995  0.20533  0.96505  Biso   1.000  O
  O18      1.0000 0.25005  0.29467  0.46505  Biso   1.000  O
  O19      1.0000 0.75005  0.20533  0.53495  Biso   1.000  O
  O20      1.0000 0.74995  0.29467  0.03495  Biso   1.000  O
  O21      1.0000 0.25005  0.29467  0.03495  Biso   1.000  O
  O22      1.0000 0.24995  0.20533  0.53495  Biso   1.000  O
  O23      1.0000 0.74995  0.29467  0.46505  Biso   1.000  O
  O24      1.0000 0.75005  0.20533  0.96505  Biso   1.000  O
  O25      1.0000 0.50000  0.23008  0.06381  Biso   1.000  O
  O26      1.0000 0.00000  0.26992  0.56381  Biso   1.000  O
  O27      1.0000 0.50000  0.23008  0.43619  Biso   1.000  O
  O28      1.0000 0.00000  0.26992  0.93619  Biso   1.000  O
  O29      1.0000 0.50000  0.15537  0.03430  Biso   1.000  O
  O30      1.0000 0.00000  0.34463  0.53430  Biso   1.000  O
  O31      1.0000 0.50000  0.15537  0.46570  Biso   1.000  O
  O32      1.0000 0.00000  0.34463  0.96570  Biso   1.000  O
  O33      1.0000 0.00000  0.42045  0.17790  Biso   1.000  O
  O34      1.0000 0.50000  0.07956  0.67790  Biso   1.000  O
  O35      1.0000 0.00000  0.42045  0.32210  Biso   1.000  O
  O36      1.0000 0.50000  0.07956  0.82210  Biso   1.000  O
  O37      1.0000 0.24999  0.35577  0.15820  Biso   1.000  O
  O38      1.0000 0.25001  0.14423  0.65820  Biso   1.000  O
  O39      1.0000 0.75001  0.35577  0.34180  Biso   1.000  O
  O40      1.0000 0.74999  0.14423  0.84180  Biso   1.000  O
  O41      1.0000 0.25001  0.14423  0.84180  Biso   1.000  O
  O42      1.0000 0.24999  0.35577  0.34180  Biso   1.000  O
  O43      1.0000 0.74999  0.14423  0.65820  Biso   1.000  O
  O44      1.0000 0.75001  0.35577  0.15820  Biso   1.000  O
  O45      1.0000 0.00000  0.38919  0.06650  Biso   1.000  O
  O46      1.0000 0.50000  0.11081  0.56650  Biso   1.000  O
  O47      1.0000 0.00000  0.38919  0.43350  Biso   1.000  O
  O48      1.0000 0.50000  0.11081  0.93350  Biso   1.000  O
  O49      1.0000 0.50000  0.29023  0.13998  Biso   1.000  O
  O50      1.0000 0.00000  0.20977  0.63998  Biso   1.000  O
  O51      1.0000 0.50000  0.29023  0.36002  Biso   1.000  O
  O52      1.0000 0.00000  0.20977  0.86002  Biso   1.000  O
  O53      1.0000 0.24988  0.01622  0.64421  Biso   1.000  O
  O54      1.0000 0.25012  0.48378  0.14421  Biso   1.000  O
  O55      1.0000 0.75012  0.01622  0.85579  Biso   1.000  O
  O56      1.0000 0.74988  0.48378  0.35579  Biso   1.000  O
  O57      1.0000 0.25012  0.48378  0.35579  Biso   1.000  O
  O58      1.0000 0.24988  0.01622  0.85579  Biso   1.000  O
  O59      1.0000 0.74988  0.48378  0.14421  Biso   1.000  O
  O60      1.0000 0.75012  0.01622  0.64421  Biso   1.000  O
  O61      1.0000 0.50000  0.32203  0.25000  Biso   1.000  O
  O62      1.0000 0.00000  0.17797  0.75000  Biso   1.000  O
  O63      1.0000 0.00000  0.48220  0.25000  Biso   1.000  O
  O64      1.0000 0.50000  0.01780  0.75000  Biso   1.000  O
  O65      1.0000 0.50000  0.55102  0.94654  Biso   1.000  O
  O66      1.0000 0.00000  0.94898  0.44654  Biso   1.000  O
  O67      1.0000 0.50000  0.55102  0.55346  Biso   1.000  O
  O68      1.0000 0.00000  0.94898  0.05346  Biso   1.000  O
  O69      1.0000 0.75025  0.58906  0.03397  Biso   1.000  O
  O70      1.0000 0.74975  0.91094  0.53397  Biso   1.000  O
  O71      1.0000 0.24975  0.58906  0.46603  Biso   1.000  O
  O72      1.0000 0.25024  0.91094  0.96603  Biso   1.000  O
  O73      1.0000 0.74975  0.91094  0.96603  Biso   1.000  O
  O74      1.0000 0.75025  0.58906  0.46603  Biso   1.000  O
  O75      1.0000 0.25024  0.91094  0.53397  Biso   1.000  O
  O76      1.0000 0.24975  0.58906  0.03397  Biso   1.000  O
  O77      1.0000 0.50000  0.52548  0.06255  Biso   1.000  O
  O78      1.0000 0.00000  0.97452  0.56255  Biso   1.000  O
  O79      1.0000 0.50000  0.52548  0.43745  Biso   1.000  O
  O80      1.0000 0.00000  0.97452  0.93745  Biso   1.000  O
  O81      1.0000 0.74995  0.70533  0.96505  Biso   1.000  O
  O82      1.0000 0.75005  0.79467  0.46505  Biso   1.000  O
  O83      1.0000 0.25005  0.70533  0.53495  Biso   1.000  O
  O84      1.0000 0.24995  0.79467  0.03495  Biso   1.000  O
  O85      1.0000 0.75005  0.79467  0.03495  Biso   1.000  O
  O86      1.0000 0.74995  0.70533  0.53495  Biso   1.000  O
  O87      1.0000 0.24995  0.79467  0.46505  Biso   1.000  O
  O88      1.0000 0.25005  0.70533  0.96505  Biso   1.000  O
  O89      1.0000 0.00000  0.73008  0.06381  Biso   1.000  O
  O90      1.0000 0.50000  0.76992  0.56381  Biso   1.000  O
  O91      1.0000 0.00000  0.73008  0.43619  Biso   1.000  O
  O92      1.0000 0.50000  0.76992  0.93619  Biso   1.000  O
  O93      1.0000 0.00000  0.65537  0.03430  Biso   1.000  O
  O94      1.0000 0.50000  0.84463  0.53430  Biso   1.000  O
  O95      1.0000 0.00000  0.65537  0.46570  Biso   1.000  O
  O96      1.0000 0.50000  0.84463  0.96570  Biso   1.000  O
  O97      1.0000 0.50000  0.92044  0.17790  Biso   1.000  O
  O98      1.0000 0.00000  0.57956  0.67790  Biso   1.000  O
  O99      1.0000 0.50000  0.92044  0.32210  Biso   1.000  O
  O100     1.0000 0.00000  0.57956  0.82210  Biso   1.000  O
  O101     1.0000 0.74999  0.85577  0.15820  Biso   1.000  O
  O102     1.0000 0.75001  0.64423  0.65820  Biso   1.000  O
  O103     1.0000 0.25001  0.85577  0.34180  Biso   1.000  O
  O104     1.0000 0.24999  0.64423  0.84180  Biso   1.000  O
  O105     1.0000 0.75001  0.64423  0.84180  Biso   1.000  O
  O106     1.0000 0.74999  0.85577  0.34180  Biso   1.000  O
  O107     1.0000 0.24999  0.64423  0.65820  Biso   1.000  O
  O108     1.0000 0.25001  0.85577  0.15820  Biso   1.000  O
  O109     1.0000 0.50000  0.88919  0.06650  Biso   1.000  O
  O110     1.0000 0.00000  0.61081  0.56650  Biso   1.000  O
  O111     1.0000 0.50000  0.88919  0.43350  Biso   1.000  O
  O112     1.0000 0.00000  0.61081  0.93350  Biso   1.000  O
  O113     1.0000 0.00000  0.79023  0.13998  Biso   1.000  O
  O114     1.0000 0.50000  0.70977  0.63998  Biso   1.000  O
  O115     1.0000 0.00000  0.79023  0.36002  Biso   1.000  O
  O116     1.0000 0.50000  0.70977  0.86002  Biso   1.000  O
  O117     1.0000 0.74988  0.51622  0.64421  Biso   1.000  O
  O118     1.0000 0.75012  0.98378  0.14421  Biso   1.000  O
  O119     1.0000 0.25012  0.51622  0.85579  Biso   1.000  O
  O120     1.0000 0.24988  0.98378  0.35579  Biso   1.000  O
  O121     1.0000 0.75012  0.98378  0.35579  Biso   1.000  O
  O122     1.0000 0.74988  0.51622  0.85579  Biso   1.000  O
  O123     1.0000 0.24988  0.98378  0.14421  Biso   1.000  O
  O124     1.0000 0.25012  0.51622  0.64421  Biso   1.000  O
  O125     1.0000 0.00000  0.82203  0.25000  Biso   1.000  O
  O126     1.0000 0.50000  0.67797  0.75000  Biso   1.000  O
  O127     1.0000 0.50000  0.98220  0.25000  Biso   1.000  O
  O128     1.0000 0.00000  0.51780  0.75000  Biso   1.000  O
  Ir1      1.0000 0.00000  0.06346  0.01920  Biso   1.000  Ir
  Ir2      1.0000 0.50000  0.43654  0.51920  Biso   1.000  Ir
  Ir3      1.0000 0.00000  0.06346  0.48080  Biso   1.000  Ir
  Ir4      1.0000 0.50000  0.43654  0.98080  Biso   1.000  Ir
  Ir5      1.0000 0.50000  0.19906  0.00712  Biso   1.000  Ir
  Ir6      1.0000 0.00000  0.30094  0.50712  Biso   1.000  Ir
  Ir7      1.0000 0.50000  0.19906  0.49288  Biso   1.000  Ir
  Ir8      1.0000 0.00000  0.30094  0.99288  Biso   1.000  Ir
  Ir9      1.0000 0.00000  0.38011  0.13989  Biso   1.000  Ir
  Ir10     1.0000 0.50000  0.11990  0.63989  Biso   1.000  Ir
  Ir11     1.0000 0.00000  0.38011  0.36011  Biso   1.000  Ir
  Ir12     1.0000 0.50000  0.11990  0.86011  Biso   1.000  Ir
  Ir13     1.0000 0.50000  0.27717  0.06818  Biso   1.000  Ir
  Ir14     1.0000 0.00000  0.22283  0.56818  Biso   1.000  Ir
  Ir15     1.0000 0.50000  0.27717  0.43182  Biso   1.000  Ir
  Ir16     1.0000 0.00000  0.22283  0.93182  Biso   1.000  Ir
  Ir17     1.0000 0.00000  0.01451  0.60120  Biso   1.000  Ir
  Ir18     1.0000 0.50000  0.48549  0.10120  Biso   1.000  Ir
  Ir19     1.0000 0.00000  0.01451  0.89880  Biso   1.000  Ir
  Ir20     1.0000 0.50000  0.48549  0.39880  Biso   1.000  Ir
  Ir21     1.0000 0.00000  0.38893  0.99167  Biso   1.000  Ir
  Ir22     1.0000 0.50000  0.11107  0.49167  Biso   1.000  Ir
  Ir23     1.0000 0.00000  0.38893  0.50833  Biso   1.000  Ir
  Ir24     1.0000 0.50000  0.11107  0.00833  Biso   1.000  Ir
  Ir25     1.0000 0.50000  0.33139  0.17691  Biso   1.000  Ir
  Ir26     1.0000 0.00000  0.16861  0.67691  Biso   1.000  Ir
  Ir27     1.0000 0.50000  0.33139  0.32309  Biso   1.000  Ir
  Ir28     1.0000 0.00000  0.16861  0.82309  Biso   1.000  Ir
  Ir29     1.0000 0.00000  0.46743  0.17874  Biso   1.000  Ir
  Ir30     1.0000 0.50000  0.03257  0.67874  Biso   1.000  Ir
  Ir31     1.0000 0.00000  0.46743  0.32126  Biso   1.000  Ir
  Ir32     1.0000 0.50000  0.03257  0.82126  Biso   1.000  Ir
  Ir33     1.0000 0.50000  0.56346  0.01920  Biso   1.000  Ir
  Ir34     1.0000 0.00000  0.93654  0.51920  Biso   1.000  Ir
  Ir35     1.0000 0.50000  0.56346  0.48080  Biso   1.000  Ir
  Ir36     1.0000 0.00000  0.93654  0.98080  Biso   1.000  Ir
  Ir37     1.0000 0.00000  0.69906  0.00712  Biso   1.000  Ir
  Ir38     1.0000 0.50000  0.80094  0.50712  Biso   1.000  Ir
  Ir39     1.0000 0.00000  0.69906  0.49288  Biso   1.000  Ir
  Ir40     1.0000 0.50000  0.80094  0.99288  Biso   1.000  Ir
  Ir41     1.0000 0.50000  0.88011  0.13989  Biso   1.000  Ir
  Ir42     1.0000 0.00000  0.61989  0.63989  Biso   1.000  Ir
  Ir43     1.0000 0.50000  0.88011  0.36011  Biso   1.000  Ir
  Ir44     1.0000 0.00000  0.61989  0.86011  Biso   1.000  Ir
  Ir45     1.0000 0.00000  0.77717  0.06818  Biso   1.000  Ir
  Ir46     1.0000 0.50000  0.72283  0.56818  Biso   1.000  Ir
  Ir47     1.0000 0.00000  0.77717  0.43182  Biso   1.000  Ir
  Ir48     1.0000 0.50000  0.72283  0.93182  Biso   1.000  Ir
  Ir49     1.0000 0.50000  0.51451  0.60120  Biso   1.000  Ir
  Ir50     1.0000 0.00000  0.98549  0.10120  Biso   1.000  Ir
  Ir51     1.0000 0.50000  0.51451  0.89880  Biso   1.000  Ir
  Ir52     1.0000 0.00000  0.98549  0.39880  Biso   1.000  Ir
  Ir53     1.0000 0.50000  0.88893  0.99167  Biso   1.000  Ir
  Ir54     1.0000 0.00000  0.61107  0.49167  Biso   1.000  Ir
  Ir55     1.0000 0.50000  0.88893  0.50833  Biso   1.000  Ir
  Ir56     1.0000 0.00000  0.61107  0.00833  Biso   1.000  Ir
  Ir57     1.0000 0.00000  0.83139  0.17691  Biso   1.000  Ir
  Ir58     1.0000 0.50000  0.66861  0.67691  Biso   1.000  Ir
  Ir59     1.0000 0.00000  0.83139  0.32309  Biso   1.000  Ir
  Ir60     1.0000 0.50000  0.66861  0.82309  Biso   1.000  Ir
  Ir61     1.0000 0.50000  0.96743  0.17874  Biso   1.000  Ir
  Ir62     1.0000 0.00000  0.53257  0.67874  Biso   1.000  Ir
  Ir63     1.0000 0.50000  0.96743  0.32126  Biso   1.000  Ir
  Ir64     1.0000 0.00000  0.53257  0.82126  Biso   1.000  Ir
