data_image0
_cell_length_a       5.42743
_cell_length_b       5.42743
_cell_length_c       146.801
_cell_angle_alpha    90
_cell_angle_beta     90
_cell_angle_gamma    120

_symmetry_space_group_name_H-M    "P 1"
_symmetry_int_tables_number       1

loop_
  _symmetry_equiv_pos_as_xyz
  'x, y, z'

loop_
  _atom_site_label
  _atom_site_occupancy
  _atom_site_fract_x
  _atom_site_fract_y
  _atom_site_fract_z
  _atom_site_thermal_displace_type
  _atom_site_B_iso_or_equiv
  _atom_site_type_symbol
  Ir1      1.0000 0.33333  0.66667  0.96250  Biso   1.000  Ir
  Ir2      1.0000 0.33333  0.66667  0.01250  Biso   1.000  Ir
  Ir3      1.0000 0.00000  0.00000  0.76249  Biso   1.000  Ir
  Ir4      1.0000 0.33333  0.66667  0.31249  Biso   1.000  Ir
  Ir5      1.0000 0.00000  0.00000  0.66249  Biso   1.000  Ir
  Ir6      1.0000 0.33333  0.66667  0.86250  Biso   1.000  Ir
  Ir7      1.0000 0.00000  0.00000  0.46250  Biso   1.000  Ir
  Ir8      1.0000 0.33333  0.66667  0.41251  Biso   1.000  Ir
  Ir9      1.0000 0.00000  0.00000  0.36251  Biso   1.000  Ir
  Ir10     1.0000 0.33333  0.66667  0.61250  Biso   1.000  Ir
  Ir11     1.0000 0.00000  0.00000  0.16250  Biso   1.000  Ir
  Ir12     1.0000 0.33333  0.66667  0.51250  Biso   1.000  Ir
  Ir13     1.0000 0.00000  0.00000  0.91249  Biso   1.000  Ir
  Ir14     1.0000 0.00000  0.00000  0.81250  Biso   1.000  Ir
  Ir15     1.0000 0.00000  0.00000  0.26249  Biso   1.000  Ir
  Ir16     1.0000 0.33333  0.66667  0.21250  Biso   1.000  Ir
  Ir17     1.0000 0.33333  0.66667  0.71250  Biso   1.000  Ir
  Ir18     1.0000 0.33333  0.66667  0.11250  Biso   1.000  Ir
  Ir19     1.0000 0.00000  0.00000  0.56249  Biso   1.000  Ir
  Ir20     1.0000 0.00000  0.00000  0.06250  Biso   1.000  Ir
  O1       1.0000 0.00000  0.00000  0.10073  Biso   1.000  O
  O2       1.0000 0.66667  0.33333  0.62428  Biso   1.000  O
  O3       1.0000 0.33333  0.66667  0.90071  Biso   1.000  O
  O4       1.0000 0.66667  0.33333  0.82428  Biso   1.000  O
  O5       1.0000 0.33333  0.66667  0.65071  Biso   1.000  O
  O6       1.0000 0.66667  0.33333  0.87428  Biso   1.000  O
  O7       1.0000 0.66667  0.33333  0.52428  Biso   1.000  O
  O8       1.0000 0.66667  0.33333  0.17428  Biso   1.000  O
  O9       1.0000 0.66667  0.33333  0.67428  Biso   1.000  O
  O10      1.0000 0.00000  0.00000  0.60073  Biso   1.000  O
  O11      1.0000 0.33333  0.66667  0.55071  Biso   1.000  O
  O12      1.0000 0.33333  0.66667  0.45071  Biso   1.000  O
  O13      1.0000 0.66667  0.33333  0.92428  Biso   1.000  O
  O14      1.0000 0.66667  0.33333  0.47428  Biso   1.000  O
  O15      1.0000 0.00000  0.00000  0.30072  Biso   1.000  O
  O16      1.0000 0.66667  0.33333  0.57428  Biso   1.000  O
  O17      1.0000 0.33333  0.66667  0.35072  Biso   1.000  O
  O18      1.0000 0.00000  0.00000  0.40073  Biso   1.000  O
  O19      1.0000 0.00000  0.00000  0.95073  Biso   1.000  O
  O20      1.0000 0.00000  0.00000  0.20072  Biso   1.000  O
  O21      1.0000 0.33333  0.66667  0.75071  Biso   1.000  O
  O22      1.0000 0.33333  0.66667  0.05071  Biso   1.000  O
  O23      1.0000 0.66667  0.33333  0.97428  Biso   1.000  O
  O24      1.0000 0.66667  0.33333  0.32427  Biso   1.000  O
  O25      1.0000 0.66667  0.33333  0.02428  Biso   1.000  O
  O26      1.0000 0.33333  0.66667  0.15071  Biso   1.000  O
  O27      1.0000 0.00000  0.00000  0.00073  Biso   1.000  O
  O28      1.0000 0.66667  0.33333  0.27428  Biso   1.000  O
  O29      1.0000 0.00000  0.00000  0.85073  Biso   1.000  O
  O30      1.0000 0.66667  0.33333  0.07428  Biso   1.000  O
  O31      1.0000 0.66667  0.33333  0.12429  Biso   1.000  O
  O32      1.0000 0.66667  0.33333  0.77428  Biso   1.000  O
  O33      1.0000 0.00000  0.00000  0.50072  Biso   1.000  O
  O34      1.0000 0.00000  0.00000  0.70073  Biso   1.000  O
  O35      1.0000 0.33333  0.66667  0.25071  Biso   1.000  O
  O36      1.0000 0.66667  0.33333  0.42429  Biso   1.000  O
  O37      1.0000 0.66667  0.33333  0.22428  Biso   1.000  O
  O38      1.0000 0.33333  0.66667  0.80072  Biso   1.000  O
  O39      1.0000 0.66667  0.33333  0.72428  Biso   1.000  O
  O40      1.0000 0.66667  0.33333  0.37429  Biso   1.000  O
