data_image0
_cell_length_a       8.87605
_cell_length_b       8.87606
_cell_length_c       6.19542
_cell_angle_alpha    90
_cell_angle_beta     90
_cell_angle_gamma    120

_symmetry_space_group_name_H-M    "P 1"
_symmetry_int_tables_number       1

loop_
  _symmetry_equiv_pos_as_xyz
  'x, y, z'

loop_
  _atom_site_label
  _atom_site_occupancy
  _atom_site_fract_x
  _atom_site_fract_y
  _atom_site_fract_z
  _atom_site_thermal_displace_type
  _atom_site_B_iso_or_equiv
  _atom_site_type_symbol
  O1       1.0000 0.00672  0.66288  0.22185  Biso   1.000  O
  O2       1.0000 0.33712  0.34384  0.22185  Biso   1.000  O
  O3       1.0000 0.65616  0.99328  0.22185  Biso   1.000  O
  O4       1.0000 0.67705  0.67054  0.73353  Biso   1.000  O
  O5       1.0000 0.32946  0.00651  0.73353  Biso   1.000  O
  O6       1.0000 0.99349  0.32295  0.73353  Biso   1.000  O
  Ir1      1.0000 0.00000  0.00000  0.45005  Biso   1.000  Ir
  Ir2      1.0000 0.66667  0.33333  0.47235  Biso   1.000  Ir
  Ir3      1.0000 0.33333  0.66667  0.51055  Biso   1.000  Ir
