data_image0
_cell_length_a       11.106
_cell_length_b       18.3847
_cell_length_c       23.4342
_cell_angle_alpha    90
_cell_angle_beta     90
_cell_angle_gamma    90

_symmetry_space_group_name_H-M    "P 1"
_symmetry_int_tables_number       1

loop_
  _symmetry_equiv_pos_as_xyz
  'x, y, z'

loop_
  _atom_site_label
  _atom_site_occupancy
  _atom_site_fract_x
  _atom_site_fract_y
  _atom_site_fract_z
  _atom_site_thermal_displace_type
  _atom_site_B_iso_or_equiv
  _atom_site_type_symbol
  O1       1.0000 0.25000  0.10937  0.75000  Biso   1.000  O
  O2       1.0000 0.25000  0.89063  0.25000  Biso   1.000  O
  O3       1.0000 0.75000  0.89063  0.25000  Biso   1.000  O
  O4       1.0000 0.75000  0.10937  0.75000  Biso   1.000  O
  O5       1.0000 0.50000  0.63877  0.68509  Biso   1.000  O
  O6       1.0000 0.50000  0.86123  0.18509  Biso   1.000  O
  O7       1.0000 0.50000  0.13877  0.81491  Biso   1.000  O
  O8       1.0000 0.50000  0.36123  0.31491  Biso   1.000  O
  O9       1.0000 0.72816  0.74407  0.66263  Biso   1.000  O
  O10      1.0000 0.27184  0.75593  0.16263  Biso   1.000  O
  O11      1.0000 0.27184  0.24407  0.83737  Biso   1.000  O
  O12      1.0000 0.72816  0.25593  0.33737  Biso   1.000  O
  O13      1.0000 0.27184  0.25593  0.33737  Biso   1.000  O
  O14      1.0000 0.72816  0.24407  0.83737  Biso   1.000  O
  O15      1.0000 0.72816  0.75593  0.16263  Biso   1.000  O
  O16      1.0000 0.27184  0.74407  0.66263  Biso   1.000  O
  O17      1.0000 0.22959  0.08069  0.61543  Biso   1.000  O
  O18      1.0000 0.27041  0.91931  0.11543  Biso   1.000  O
  O19      1.0000 0.27041  0.08069  0.88457  Biso   1.000  O
  O20      1.0000 0.22959  0.91931  0.38457  Biso   1.000  O
  O21      1.0000 0.77041  0.91931  0.38457  Biso   1.000  O
  O22      1.0000 0.72959  0.08069  0.88457  Biso   1.000  O
  O23      1.0000 0.72959  0.91931  0.11543  Biso   1.000  O
  O24      1.0000 0.77041  0.08069  0.61543  Biso   1.000  O
  O25      1.0000 0.22010  0.90829  0.88448  Biso   1.000  O
  O26      1.0000 0.27991  0.09171  0.38448  Biso   1.000  O
  O27      1.0000 0.27991  0.90829  0.61552  Biso   1.000  O
  O28      1.0000 0.22010  0.09171  0.11552  Biso   1.000  O
  O29      1.0000 0.77991  0.09171  0.11552  Biso   1.000  O
  O30      1.0000 0.72010  0.90829  0.61552  Biso   1.000  O
  O31      1.0000 0.72010  0.09171  0.38448  Biso   1.000  O
  O32      1.0000 0.77991  0.90829  0.88448  Biso   1.000  O
  O33      1.0000 0.19695  0.00000  0.00000  Biso   1.000  O
  O34      1.0000 0.30305  0.00000  0.50000  Biso   1.000  O
  O35      1.0000 0.80305  0.00000  0.00000  Biso   1.000  O
  O36      1.0000 0.69695  0.00000  0.50000  Biso   1.000  O
  O37      1.0000 0.50000  0.52182  0.90040  Biso   1.000  O
  O38      1.0000 0.50000  0.97818  0.40040  Biso   1.000  O
  O39      1.0000 0.50000  0.02182  0.59960  Biso   1.000  O
  O40      1.0000 0.50000  0.47818  0.09960  Biso   1.000  O
  O41      1.0000 0.25000  0.87957  0.75000  Biso   1.000  O
  O42      1.0000 0.25000  0.12043  0.25000  Biso   1.000  O
  O43      1.0000 0.75000  0.12043  0.25000  Biso   1.000  O
  O44      1.0000 0.75000  0.87957  0.75000  Biso   1.000  O
  O45      1.0000 0.50000  0.84556  0.68960  Biso   1.000  O
  O46      1.0000 0.50000  0.65444  0.18960  Biso   1.000  O
  O47      1.0000 0.50000  0.34556  0.81040  Biso   1.000  O
  O48      1.0000 0.50000  0.15444  0.31040  Biso   1.000  O
  O49      1.0000 0.75000  0.60937  0.75000  Biso   1.000  O
  O50      1.0000 0.75000  0.39063  0.25000  Biso   1.000  O
  O51      1.0000 0.25000  0.39063  0.25000  Biso   1.000  O
  O52      1.0000 0.25000  0.60937  0.75000  Biso   1.000  O
  O53      1.0000 0.00000  0.13877  0.68509  Biso   1.000  O
  O54      1.0000 0.00000  0.36123  0.18509  Biso   1.000  O
  O55      1.0000 0.00000  0.63877  0.81491  Biso   1.000  O
  O56      1.0000 0.00000  0.86123  0.31491  Biso   1.000  O
  O57      1.0000 0.22816  0.24407  0.66263  Biso   1.000  O
  O58      1.0000 0.77184  0.25593  0.16263  Biso   1.000  O
  O59      1.0000 0.77184  0.74407  0.83737  Biso   1.000  O
  O60      1.0000 0.22816  0.75593  0.33737  Biso   1.000  O
  O61      1.0000 0.77184  0.75593  0.33737  Biso   1.000  O
  O62      1.0000 0.22816  0.74407  0.83737  Biso   1.000  O
  O63      1.0000 0.22816  0.25593  0.16263  Biso   1.000  O
  O64      1.0000 0.77184  0.24407  0.66263  Biso   1.000  O
  O65      1.0000 0.72959  0.58069  0.61543  Biso   1.000  O
  O66      1.0000 0.77041  0.41931  0.11543  Biso   1.000  O
  O67      1.0000 0.77041  0.58069  0.88457  Biso   1.000  O
  O68      1.0000 0.72959  0.41931  0.38457  Biso   1.000  O
  O69      1.0000 0.27041  0.41931  0.38457  Biso   1.000  O
  O70      1.0000 0.22959  0.58069  0.88457  Biso   1.000  O
  O71      1.0000 0.22959  0.41931  0.11543  Biso   1.000  O
  O72      1.0000 0.27041  0.58069  0.61543  Biso   1.000  O
  O73      1.0000 0.72010  0.40829  0.88448  Biso   1.000  O
  O74      1.0000 0.77991  0.59171  0.38448  Biso   1.000  O
  O75      1.0000 0.77991  0.40829  0.61552  Biso   1.000  O
  O76      1.0000 0.72010  0.59171  0.11552  Biso   1.000  O
  O77      1.0000 0.27991  0.59171  0.11552  Biso   1.000  O
  O78      1.0000 0.22010  0.40829  0.61552  Biso   1.000  O
  O79      1.0000 0.22010  0.59171  0.38448  Biso   1.000  O
  O80      1.0000 0.27991  0.40829  0.88448  Biso   1.000  O
  O81      1.0000 0.69695  0.50000  0.00000  Biso   1.000  O
  O82      1.0000 0.80305  0.50000  0.50000  Biso   1.000  O
  O83      1.0000 0.30305  0.50000  0.00000  Biso   1.000  O
  O84      1.0000 0.19695  0.50000  0.50000  Biso   1.000  O
  O85      1.0000 0.00000  0.02182  0.90040  Biso   1.000  O
  O86      1.0000 0.00000  0.47818  0.40040  Biso   1.000  O
  O87      1.0000 0.00000  0.52182  0.59960  Biso   1.000  O
  O88      1.0000 0.00000  0.97818  0.09960  Biso   1.000  O
  O89      1.0000 0.75000  0.37957  0.75000  Biso   1.000  O
  O90      1.0000 0.75000  0.62043  0.25000  Biso   1.000  O
  O91      1.0000 0.25000  0.62043  0.25000  Biso   1.000  O
  O92      1.0000 0.25000  0.37957  0.75000  Biso   1.000  O
  O93      1.0000 0.00000  0.34556  0.68960  Biso   1.000  O
  O94      1.0000 0.00000  0.15444  0.18960  Biso   1.000  O
  O95      1.0000 0.00000  0.84556  0.81040  Biso   1.000  O
  O96      1.0000 0.00000  0.65444  0.31040  Biso   1.000  O
  Ir1      1.0000 0.17601  0.14297  0.67822  Biso   1.000  Ir
  Ir2      1.0000 0.32399  0.85703  0.17822  Biso   1.000  Ir
  Ir3      1.0000 0.32399  0.14297  0.82178  Biso   1.000  Ir
  Ir4      1.0000 0.17601  0.85703  0.32178  Biso   1.000  Ir
  Ir5      1.0000 0.82399  0.85703  0.32178  Biso   1.000  Ir
  Ir6      1.0000 0.67601  0.14297  0.82178  Biso   1.000  Ir
  Ir7      1.0000 0.67601  0.85703  0.17822  Biso   1.000  Ir
  Ir8      1.0000 0.82399  0.14297  0.67822  Biso   1.000  Ir
  Ir9      1.0000 0.17120  0.00287  0.91745  Biso   1.000  Ir
  Ir10     1.0000 0.32881  0.99713  0.41745  Biso   1.000  Ir
  Ir11     1.0000 0.32881  0.00287  0.58255  Biso   1.000  Ir
  Ir12     1.0000 0.17120  0.99713  0.08255  Biso   1.000  Ir
  Ir13     1.0000 0.82881  0.99713  0.08255  Biso   1.000  Ir
  Ir14     1.0000 0.67119  0.00287  0.58255  Biso   1.000  Ir
  Ir15     1.0000 0.67119  0.99713  0.41745  Biso   1.000  Ir
  Ir16     1.0000 0.82881  0.00287  0.91745  Biso   1.000  Ir
  Ir17     1.0000 0.32526  0.84430  0.67916  Biso   1.000  Ir
  Ir18     1.0000 0.17474  0.15570  0.17916  Biso   1.000  Ir
  Ir19     1.0000 0.17474  0.84430  0.82084  Biso   1.000  Ir
  Ir20     1.0000 0.32526  0.15570  0.32084  Biso   1.000  Ir
  Ir21     1.0000 0.67474  0.15570  0.32084  Biso   1.000  Ir
  Ir22     1.0000 0.82526  0.84430  0.82084  Biso   1.000  Ir
  Ir23     1.0000 0.82526  0.15570  0.17916  Biso   1.000  Ir
  Ir24     1.0000 0.67474  0.84430  0.67916  Biso   1.000  Ir
  Ir25     1.0000 0.67601  0.64297  0.67822  Biso   1.000  Ir
  Ir26     1.0000 0.82399  0.35703  0.17822  Biso   1.000  Ir
  Ir27     1.0000 0.82399  0.64297  0.82178  Biso   1.000  Ir
  Ir28     1.0000 0.67601  0.35703  0.32178  Biso   1.000  Ir
  Ir29     1.0000 0.32399  0.35703  0.32178  Biso   1.000  Ir
  Ir30     1.0000 0.17601  0.64297  0.82178  Biso   1.000  Ir
  Ir31     1.0000 0.17601  0.35703  0.17822  Biso   1.000  Ir
  Ir32     1.0000 0.32399  0.64297  0.67822  Biso   1.000  Ir
  Ir33     1.0000 0.67119  0.50287  0.91745  Biso   1.000  Ir
  Ir34     1.0000 0.82881  0.49713  0.41745  Biso   1.000  Ir
  Ir35     1.0000 0.82881  0.50287  0.58255  Biso   1.000  Ir
  Ir36     1.0000 0.67119  0.49713  0.08255  Biso   1.000  Ir
  Ir37     1.0000 0.32881  0.49713  0.08255  Biso   1.000  Ir
  Ir38     1.0000 0.17120  0.50287  0.58255  Biso   1.000  Ir
  Ir39     1.0000 0.17120  0.49713  0.41745  Biso   1.000  Ir
  Ir40     1.0000 0.32881  0.50287  0.91745  Biso   1.000  Ir
  Ir41     1.0000 0.82526  0.34430  0.67916  Biso   1.000  Ir
  Ir42     1.0000 0.67474  0.65570  0.17916  Biso   1.000  Ir
  Ir43     1.0000 0.67474  0.34430  0.82084  Biso   1.000  Ir
  Ir44     1.0000 0.82526  0.65570  0.32084  Biso   1.000  Ir
  Ir45     1.0000 0.17474  0.65570  0.32084  Biso   1.000  Ir
  Ir46     1.0000 0.32526  0.34430  0.82084  Biso   1.000  Ir
  Ir47     1.0000 0.32526  0.65570  0.17916  Biso   1.000  Ir
  Ir48     1.0000 0.17474  0.34430  0.67916  Biso   1.000  Ir
