data_image0
_cell_length_a       9.42664
_cell_length_b       9.42664
_cell_length_c       8.47705
_cell_angle_alpha    90
_cell_angle_beta     90
_cell_angle_gamma    90

_symmetry_space_group_name_H-M    "P 1"
_symmetry_int_tables_number       1

loop_
  _symmetry_equiv_pos_as_xyz
  'x, y, z'

loop_
  _atom_site_label
  _atom_site_occupancy
  _atom_site_fract_x
  _atom_site_fract_y
  _atom_site_fract_z
  _atom_site_thermal_displace_type
  _atom_site_B_iso_or_equiv
  _atom_site_type_symbol
  O1       1.0000 0.00003  0.14923  0.37500  Biso   1.000  O
  O2       1.0000 0.99997  0.85077  0.37500  Biso   1.000  O
  O3       1.0000 0.35077  0.50003  0.87500  Biso   1.000  O
  O4       1.0000 0.64923  0.49997  0.87500  Biso   1.000  O
  O5       1.0000 0.49997  0.64923  0.62500  Biso   1.000  O
  O6       1.0000 0.50003  0.35077  0.62500  Biso   1.000  O
  O7       1.0000 0.14923  0.00003  0.12500  Biso   1.000  O
  O8       1.0000 0.85077  0.99997  0.12500  Biso   1.000  O
  O9       1.0000 0.49997  0.35077  0.12500  Biso   1.000  O
  O10      1.0000 0.50003  0.64923  0.12500  Biso   1.000  O
  O11      1.0000 0.14923  0.99997  0.62500  Biso   1.000  O
  O12      1.0000 0.85077  0.00003  0.62500  Biso   1.000  O
  O13      1.0000 0.00003  0.85077  0.87500  Biso   1.000  O
  O14      1.0000 0.99997  0.14923  0.87500  Biso   1.000  O
  O15      1.0000 0.35077  0.49997  0.37500  Biso   1.000  O
  O16      1.0000 0.64923  0.50003  0.37500  Biso   1.000  O
  O17      1.0000 0.65724  0.15724  0.37523  Biso   1.000  O
  O18      1.0000 0.34276  0.84276  0.37523  Biso   1.000  O
  O19      1.0000 0.34276  0.15724  0.87523  Biso   1.000  O
  O20      1.0000 0.65724  0.84276  0.87523  Biso   1.000  O
  O21      1.0000 0.84276  0.65724  0.62477  Biso   1.000  O
  O22      1.0000 0.15724  0.34276  0.62477  Biso   1.000  O
  O23      1.0000 0.15724  0.65724  0.12477  Biso   1.000  O
  O24      1.0000 0.84276  0.34276  0.12477  Biso   1.000  O
  O25      1.0000 0.84349  0.34349  0.62519  Biso   1.000  O
  O26      1.0000 0.15651  0.65651  0.62519  Biso   1.000  O
  O27      1.0000 0.15651  0.34349  0.12519  Biso   1.000  O
  O28      1.0000 0.84349  0.65651  0.12519  Biso   1.000  O
  O29      1.0000 0.65651  0.84349  0.37481  Biso   1.000  O
  O30      1.0000 0.34349  0.15651  0.37481  Biso   1.000  O
  O31      1.0000 0.34349  0.84349  0.87481  Biso   1.000  O
  O32      1.0000 0.65651  0.15651  0.87481  Biso   1.000  O
  Ir1      1.0000 0.99993  0.20351  0.12499  Biso   1.000  Ir
  Ir2      1.0000 0.00007  0.79649  0.12499  Biso   1.000  Ir
  Ir3      1.0000 0.29649  0.49993  0.62499  Biso   1.000  Ir
  Ir4      1.0000 0.70351  0.50007  0.62499  Biso   1.000  Ir
  Ir5      1.0000 0.50007  0.70351  0.87501  Biso   1.000  Ir
  Ir6      1.0000 0.49993  0.29649  0.87501  Biso   1.000  Ir
  Ir7      1.0000 0.20351  0.99993  0.37501  Biso   1.000  Ir
  Ir8      1.0000 0.79649  0.00007  0.37501  Biso   1.000  Ir
  Ir9      1.0000 0.50007  0.29649  0.37501  Biso   1.000  Ir
  Ir10     1.0000 0.49993  0.70351  0.37501  Biso   1.000  Ir
  Ir11     1.0000 0.20351  0.00007  0.87501  Biso   1.000  Ir
  Ir12     1.0000 0.79649  0.99993  0.87501  Biso   1.000  Ir
  Ir13     1.0000 0.99993  0.79649  0.62499  Biso   1.000  Ir
  Ir14     1.0000 0.00007  0.20351  0.62499  Biso   1.000  Ir
  Ir15     1.0000 0.29649  0.50007  0.12499  Biso   1.000  Ir
  Ir16     1.0000 0.70351  0.49993  0.12499  Biso   1.000  Ir
