data_image0
_cell_length_a       14.48
_cell_length_b       17.0082
_cell_length_c       13.1236
_cell_angle_alpha    90
_cell_angle_beta     113.943
_cell_angle_gamma    90

_symmetry_space_group_name_H-M    "P 1"
_symmetry_int_tables_number       1

loop_
  _symmetry_equiv_pos_as_xyz
  'x, y, z'

loop_
  _atom_site_label
  _atom_site_occupancy
  _atom_site_fract_x
  _atom_site_fract_y
  _atom_site_fract_z
  _atom_site_thermal_displace_type
  _atom_site_B_iso_or_equiv
  _atom_site_type_symbol
  O1       1.0000 0.92569  0.12864  0.30535  Biso   1.000  O
  O2       1.0000 0.07431  0.62864  0.19465  Biso   1.000  O
  O3       1.0000 0.07431  0.87136  0.69465  Biso   1.000  O
  O4       1.0000 0.92569  0.37136  0.80535  Biso   1.000  O
  O5       1.0000 0.97083  0.11971  0.55160  Biso   1.000  O
  O6       1.0000 0.02917  0.61971  0.94840  Biso   1.000  O
  O7       1.0000 0.02917  0.88029  0.44840  Biso   1.000  O
  O8       1.0000 0.97083  0.38029  0.05160  Biso   1.000  O
  O9       1.0000 0.05584  0.35874  0.59947  Biso   1.000  O
  O10      1.0000 0.94416  0.85874  0.90053  Biso   1.000  O
  O11      1.0000 0.94416  0.64126  0.40053  Biso   1.000  O
  O12      1.0000 0.05584  0.14126  0.09947  Biso   1.000  O
  O13      1.0000 0.87352  0.37250  0.33062  Biso   1.000  O
  O14      1.0000 0.12648  0.87250  0.16938  Biso   1.000  O
  O15      1.0000 0.12648  0.62750  0.66938  Biso   1.000  O
  O16      1.0000 0.87352  0.12750  0.83062  Biso   1.000  O
  O17      1.0000 0.24528  0.34511  0.33116  Biso   1.000  O
  O18      1.0000 0.75472  0.84511  0.16884  Biso   1.000  O
  O19      1.0000 0.75472  0.65489  0.66883  Biso   1.000  O
  O20      1.0000 0.24528  0.15489  0.83117  Biso   1.000  O
  O21      1.0000 0.33922  0.48676  0.54427  Biso   1.000  O
  O22      1.0000 0.66078  0.98676  0.95573  Biso   1.000  O
  O23      1.0000 0.66078  0.51324  0.45573  Biso   1.000  O
  O24      1.0000 0.33922  0.01324  0.04427  Biso   1.000  O
  O25      1.0000 0.48220  0.27959  0.72509  Biso   1.000  O
  O26      1.0000 0.51780  0.77959  0.77491  Biso   1.000  O
  O27      1.0000 0.51780  0.72041  0.27491  Biso   1.000  O
  O28      1.0000 0.48220  0.22041  0.22509  Biso   1.000  O
  O29      1.0000 0.61890  0.24892  0.55191  Biso   1.000  O
  O30      1.0000 0.38110  0.74892  0.94809  Biso   1.000  O
  O31      1.0000 0.38110  0.75108  0.44809  Biso   1.000  O
  O32      1.0000 0.61890  0.25108  0.05191  Biso   1.000  O
  O33      1.0000 0.32376  0.07469  0.40287  Biso   1.000  O
  O34      1.0000 0.67624  0.57469  0.09713  Biso   1.000  O
  O35      1.0000 0.67624  0.92531  0.59713  Biso   1.000  O
  O36      1.0000 0.32376  0.42531  0.90287  Biso   1.000  O
  O37      1.0000 0.36745  0.04257  0.64683  Biso   1.000  O
  O38      1.0000 0.63255  0.54257  0.85317  Biso   1.000  O
  O39      1.0000 0.63255  0.95743  0.35317  Biso   1.000  O
  O40      1.0000 0.36745  0.45743  0.14683  Biso   1.000  O
  Ir1      1.0000 0.06183  0.17340  0.46065  Biso   1.000  Ir
  Ir2      1.0000 0.93817  0.67340  0.03935  Biso   1.000  Ir
  Ir3      1.0000 0.93817  0.82660  0.53935  Biso   1.000  Ir
  Ir4      1.0000 0.06183  0.32660  0.96065  Biso   1.000  Ir
  Ir5      1.0000 0.06079  0.31527  0.46527  Biso   1.000  Ir
  Ir6      1.0000 0.93921  0.81527  0.03473  Biso   1.000  Ir
  Ir7      1.0000 0.93921  0.68473  0.53473  Biso   1.000  Ir
  Ir8      1.0000 0.06079  0.18473  0.96527  Biso   1.000  Ir
  Ir9      1.0000 0.26902  0.35459  0.48063  Biso   1.000  Ir
  Ir10     1.0000 0.73099  0.85459  0.01937  Biso   1.000  Ir
  Ir11     1.0000 0.73099  0.64541  0.51937  Biso   1.000  Ir
  Ir12     1.0000 0.26902  0.14541  0.98063  Biso   1.000  Ir
  Ir13     1.0000 0.42003  0.25384  0.56873  Biso   1.000  Ir
  Ir14     1.0000 0.57998  0.75384  0.93127  Biso   1.000  Ir
  Ir15     1.0000 0.57998  0.74616  0.43127  Biso   1.000  Ir
  Ir16     1.0000 0.42003  0.24616  0.06873  Biso   1.000  Ir
  Ir17     1.0000 0.29214  0.13475  0.52068  Biso   1.000  Ir
  Ir18     1.0000 0.70786  0.63475  0.97932  Biso   1.000  Ir
  Ir19     1.0000 0.70786  0.86525  0.47932  Biso   1.000  Ir
  Ir20     1.0000 0.29214  0.36525  0.02068  Biso   1.000  Ir
