data_image0
_cell_length_a       16.8072
_cell_length_b       11.9158
_cell_length_c       11.1681
_cell_angle_alpha    90
_cell_angle_beta     104.986
_cell_angle_gamma    90

_symmetry_space_group_name_H-M    "P 1"
_symmetry_int_tables_number       1

loop_
  _symmetry_equiv_pos_as_xyz
  'x, y, z'

loop_
  _atom_site_label
  _atom_site_occupancy
  _atom_site_fract_x
  _atom_site_fract_y
  _atom_site_fract_z
  _atom_site_thermal_displace_type
  _atom_site_B_iso_or_equiv
  _atom_site_type_symbol
  O1       1.0000 0.17241  0.53822  0.81693  Biso   1.000  O
  O2       1.0000 0.82760  0.03822  0.68307  Biso   1.000  O
  O3       1.0000 0.82760  0.46178  0.18307  Biso   1.000  O
  O4       1.0000 0.17241  0.96178  0.31693  Biso   1.000  O
  O5       1.0000 0.86171  0.60156  0.81860  Biso   1.000  O
  O6       1.0000 0.13829  0.10156  0.68140  Biso   1.000  O
  O7       1.0000 0.13829  0.39844  0.18140  Biso   1.000  O
  O8       1.0000 0.86171  0.89844  0.31860  Biso   1.000  O
  O9       1.0000 0.97675  0.70335  0.73259  Biso   1.000  O
  O10      1.0000 0.02325  0.20335  0.76741  Biso   1.000  O
  O11      1.0000 0.02325  0.29665  0.26741  Biso   1.000  O
  O12      1.0000 0.97675  0.79665  0.23259  Biso   1.000  O
  O13      1.0000 0.31328  0.45290  0.63869  Biso   1.000  O
  O14      1.0000 0.68672  0.95290  0.86131  Biso   1.000  O
  O15      1.0000 0.68672  0.54710  0.36131  Biso   1.000  O
  O16      1.0000 0.31328  0.04710  0.13869  Biso   1.000  O
  O17      1.0000 0.00263  0.41309  0.71882  Biso   1.000  O
  O18      1.0000 0.99737  0.91309  0.78118  Biso   1.000  O
  O19      1.0000 0.99737  0.58691  0.28118  Biso   1.000  O
  O20      1.0000 0.00263  0.08691  0.21882  Biso   1.000  O
  O21      1.0000 0.94490  0.14488  0.50610  Biso   1.000  O
  O22      1.0000 0.05510  0.64487  0.99390  Biso   1.000  O
  O23      1.0000 0.05510  0.85513  0.49390  Biso   1.000  O
  O24      1.0000 0.94490  0.35513  0.00610  Biso   1.000  O
  O25      1.0000 0.44717  0.34040  0.44047  Biso   1.000  O
  O26      1.0000 0.55283  0.84040  0.05953  Biso   1.000  O
  O27      1.0000 0.55283  0.65960  0.55953  Biso   1.000  O
  O28      1.0000 0.44717  0.15960  0.94047  Biso   1.000  O
  O29      1.0000 0.49726  0.57921  0.21927  Biso   1.000  O
  O30      1.0000 0.50274  0.07921  0.28073  Biso   1.000  O
  O31      1.0000 0.50274  0.42079  0.78073  Biso   1.000  O
  O32      1.0000 0.49726  0.92079  0.71927  Biso   1.000  O
  O33      1.0000 0.85920  0.25058  0.78406  Biso   1.000  O
  O34      1.0000 0.14080  0.75058  0.71594  Biso   1.000  O
  O35      1.0000 0.14080  0.74942  0.21594  Biso   1.000  O
  O36      1.0000 0.85920  0.24942  0.28406  Biso   1.000  O
  O37      1.0000 0.79263  0.70858  0.36199  Biso   1.000  O
  O38      1.0000 0.20737  0.20858  0.13801  Biso   1.000  O
  O39      1.0000 0.20737  0.29142  0.63801  Biso   1.000  O
  O40      1.0000 0.79263  0.79142  0.86199  Biso   1.000  O
  O41      1.0000 0.36066  0.26392  0.57463  Biso   1.000  O
  O42      1.0000 0.63934  0.76392  0.92537  Biso   1.000  O
  O43      1.0000 0.63934  0.73608  0.42538  Biso   1.000  O
  O44      1.0000 0.36066  0.23608  0.07462  Biso   1.000  O
  O45      1.0000 0.22923  0.74990  0.08108  Biso   1.000  O
  O46      1.0000 0.77077  0.24990  0.41892  Biso   1.000  O
  O47      1.0000 0.77077  0.25010  0.91892  Biso   1.000  O
  O48      1.0000 0.22923  0.75010  0.58108  Biso   1.000  O
  O49      1.0000 0.39035  0.60085  0.33737  Biso   1.000  O
  O50      1.0000 0.60965  0.10085  0.16263  Biso   1.000  O
  O51      1.0000 0.60965  0.39915  0.66263  Biso   1.000  O
  O52      1.0000 0.39035  0.89915  0.83737  Biso   1.000  O
  O53      1.0000 0.10096  0.42278  0.94323  Biso   1.000  O
  O54      1.0000 0.89904  0.92278  0.55677  Biso   1.000  O
  O55      1.0000 0.89904  0.57722  0.05677  Biso   1.000  O
  O56      1.0000 0.10096  0.07722  0.44323  Biso   1.000  O
  O57      1.0000 0.92893  0.12954  0.98991  Biso   1.000  O
  O58      1.0000 0.07107  0.62954  0.51009  Biso   1.000  O
  O59      1.0000 0.07107  0.87046  0.01009  Biso   1.000  O
  O60      1.0000 0.92893  0.37046  0.48991  Biso   1.000  O
  O61      1.0000 0.70941  0.30273  0.07295  Biso   1.000  O
  O62      1.0000 0.29059  0.80273  0.42705  Biso   1.000  O
  O63      1.0000 0.29059  0.69727  0.92705  Biso   1.000  O
  O64      1.0000 0.70941  0.19727  0.57295  Biso   1.000  O
  O65      1.0000 0.52298  0.20958  0.75577  Biso   1.000  O
  O66      1.0000 0.47702  0.70958  0.74423  Biso   1.000  O
  O67      1.0000 0.47702  0.79042  0.24423  Biso   1.000  O
  O68      1.0000 0.52298  0.29042  0.25577  Biso   1.000  O
  O69      1.0000 0.73517  0.73619  0.64979  Biso   1.000  O
  O70      1.0000 0.26483  0.23619  0.85021  Biso   1.000  O
  O71      1.0000 0.26483  0.26381  0.35021  Biso   1.000  O
  O72      1.0000 0.73517  0.76381  0.14979  Biso   1.000  O
  O73      1.0000 0.61166  0.06562  0.67701  Biso   1.000  O
  O74      1.0000 0.38834  0.56562  0.82299  Biso   1.000  O
  O75      1.0000 0.38834  0.93438  0.32299  Biso   1.000  O
  O76      1.0000 0.61166  0.43438  0.17701  Biso   1.000  O
  O77      1.0000 0.30036  0.04182  0.62636  Biso   1.000  O
  O78      1.0000 0.69964  0.54182  0.87364  Biso   1.000  O
  O79      1.0000 0.69964  0.95818  0.37364  Biso   1.000  O
  O80      1.0000 0.30036  0.45818  0.12636  Biso   1.000  O
  O81      1.0000 0.86861  0.58739  0.55821  Biso   1.000  O
  O82      1.0000 0.13139  0.08739  0.94179  Biso   1.000  O
  O83      1.0000 0.13139  0.41261  0.44179  Biso   1.000  O
  O84      1.0000 0.86861  0.91261  0.05821  Biso   1.000  O
  O85      1.0000 0.37756  0.60990  0.54127  Biso   1.000  O
  O86      1.0000 0.62244  0.10990  0.95873  Biso   1.000  O
  O87      1.0000 0.62244  0.39010  0.45873  Biso   1.000  O
  O88      1.0000 0.37756  0.89010  0.04127  Biso   1.000  O
  O89      1.0000 0.57936  0.62440  0.06392  Biso   1.000  O
  O90      1.0000 0.42064  0.12440  0.43608  Biso   1.000  O
  O91      1.0000 0.42064  0.37560  0.93608  Biso   1.000  O
  O92      1.0000 0.57936  0.87560  0.56392  Biso   1.000  O
  O93      1.0000 0.21808  0.56125  0.33646  Biso   1.000  O
  O94      1.0000 0.78192  0.06125  0.16354  Biso   1.000  O
  O95      1.0000 0.78192  0.43875  0.66354  Biso   1.000  O
  O96      1.0000 0.21808  0.93875  0.83646  Biso   1.000  O
  Ir1      1.0000 0.93400  0.42643  0.84037  Biso   1.000  Ir
  Ir2      1.0000 0.06600  0.92643  0.65963  Biso   1.000  Ir
  Ir3      1.0000 0.06600  0.57357  0.15963  Biso   1.000  Ir
  Ir4      1.0000 0.93400  0.07357  0.34037  Biso   1.000  Ir
  Ir5      1.0000 0.44866  0.78597  0.58004  Biso   1.000  Ir
  Ir6      1.0000 0.55134  0.28597  0.91996  Biso   1.000  Ir
  Ir7      1.0000 0.55134  0.21402  0.41996  Biso   1.000  Ir
  Ir8      1.0000 0.44866  0.71403  0.08004  Biso   1.000  Ir
  Ir9      1.0000 0.44498  0.43330  0.59112  Biso   1.000  Ir
  Ir10     1.0000 0.55503  0.93330  0.90888  Biso   1.000  Ir
  Ir11     1.0000 0.55503  0.56670  0.40888  Biso   1.000  Ir
  Ir12     1.0000 0.44498  0.06670  0.09112  Biso   1.000  Ir
  Ir13     1.0000 0.20441  0.91900  0.49447  Biso   1.000  Ir
  Ir14     1.0000 0.79559  0.41900  0.00553  Biso   1.000  Ir
  Ir15     1.0000 0.79559  0.08100  0.50553  Biso   1.000  Ir
  Ir16     1.0000 0.20441  0.58100  0.99447  Biso   1.000  Ir
  Ir17     1.0000 0.05003  0.22909  0.13050  Biso   1.000  Ir
  Ir18     1.0000 0.94997  0.72908  0.36950  Biso   1.000  Ir
  Ir19     1.0000 0.94997  0.77092  0.86950  Biso   1.000  Ir
  Ir20     1.0000 0.05003  0.27092  0.63050  Biso   1.000  Ir
  Ir21     1.0000 0.80597  0.76448  0.53013  Biso   1.000  Ir
  Ir22     1.0000 0.19403  0.26449  0.96987  Biso   1.000  Ir
  Ir23     1.0000 0.19403  0.23552  0.46987  Biso   1.000  Ir
  Ir24     1.0000 0.80597  0.73552  0.03013  Biso   1.000  Ir
  Ir25     1.0000 0.30785  0.42678  0.29469  Biso   1.000  Ir
  Ir26     1.0000 0.69215  0.92678  0.20531  Biso   1.000  Ir
  Ir27     1.0000 0.69215  0.57322  0.70531  Biso   1.000  Ir
  Ir28     1.0000 0.30785  0.07322  0.79469  Biso   1.000  Ir
  Ir29     1.0000 0.78860  0.42295  0.50009  Biso   1.000  Ir
  Ir30     1.0000 0.21140  0.92295  0.99991  Biso   1.000  Ir
  Ir31     1.0000 0.21140  0.57705  0.49991  Biso   1.000  Ir
  Ir32     1.0000 0.78860  0.07705  0.00009  Biso   1.000  Ir
  Ir33     1.0000 0.69103  0.26123  0.22798  Biso   1.000  Ir
  Ir34     1.0000 0.30897  0.76123  0.27202  Biso   1.000  Ir
  Ir35     1.0000 0.30897  0.73877  0.77202  Biso   1.000  Ir
  Ir36     1.0000 0.69103  0.23877  0.72798  Biso   1.000  Ir
  Ir37     1.0000 0.72316  0.91940  0.71503  Biso   1.000  Ir
  Ir38     1.0000 0.27684  0.41940  0.78497  Biso   1.000  Ir
  Ir39     1.0000 0.27684  0.08060  0.28497  Biso   1.000  Ir
  Ir40     1.0000 0.72316  0.58060  0.21502  Biso   1.000  Ir
  Ir41     1.0000 0.04056  0.91579  0.15511  Biso   1.000  Ir
  Ir42     1.0000 0.95944  0.41579  0.34489  Biso   1.000  Ir
  Ir43     1.0000 0.95944  0.08421  0.84489  Biso   1.000  Ir
  Ir44     1.0000 0.04056  0.58421  0.65511  Biso   1.000  Ir
  Ir45     1.0000 0.55519  0.90984  0.38587  Biso   1.000  Ir
  Ir46     1.0000 0.44481  0.40984  0.11413  Biso   1.000  Ir
  Ir47     1.0000 0.44481  0.09016  0.61413  Biso   1.000  Ir
  Ir48     1.0000 0.55519  0.59016  0.88587  Biso   1.000  Ir
