data_image0
_cell_length_a       16.5615
_cell_length_b       21.4884
_cell_length_c       21.8623
_cell_angle_alpha    90
_cell_angle_beta     90
_cell_angle_gamma    90

_symmetry_space_group_name_H-M    "P 1"
_symmetry_int_tables_number       1

loop_
  _symmetry_equiv_pos_as_xyz
  'x, y, z'

loop_
  _atom_site_label
  _atom_site_occupancy
  _atom_site_fract_x
  _atom_site_fract_y
  _atom_site_fract_z
  _atom_site_thermal_displace_type
  _atom_site_B_iso_or_equiv
  _atom_site_type_symbol
  O1       1.0000 0.18233  0.19853  0.19597  Biso   1.000  O
  O2       1.0000 0.31766  0.30147  0.19597  Biso   1.000  O
  O3       1.0000 0.31766  0.19853  0.30403  Biso   1.000  O
  O4       1.0000 0.18233  0.30147  0.30403  Biso   1.000  O
  O5       1.0000 0.31766  0.80147  0.30403  Biso   1.000  O
  O6       1.0000 0.18233  0.69853  0.30403  Biso   1.000  O
  O7       1.0000 0.18233  0.80147  0.19597  Biso   1.000  O
  O8       1.0000 0.31766  0.69853  0.19597  Biso   1.000  O
  O9       1.0000 0.14260  0.92486  0.11814  Biso   1.000  O
  O10      1.0000 0.35740  0.57514  0.11814  Biso   1.000  O
  O11      1.0000 0.35740  0.92486  0.38186  Biso   1.000  O
  O12      1.0000 0.14260  0.57514  0.38186  Biso   1.000  O
  O13      1.0000 0.35740  0.07514  0.38186  Biso   1.000  O
  O14      1.0000 0.14260  0.42486  0.38186  Biso   1.000  O
  O15      1.0000 0.14260  0.07514  0.11814  Biso   1.000  O
  O16      1.0000 0.35740  0.42486  0.11814  Biso   1.000  O
  O17      1.0000 0.37362  0.92510  0.23462  Biso   1.000  O
  O18      1.0000 0.62638  0.07489  0.23462  Biso   1.000  O
  O19      1.0000 0.12638  0.92510  0.26538  Biso   1.000  O
  O20      1.0000 0.87362  0.07489  0.26538  Biso   1.000  O
  O21      1.0000 0.12638  0.07489  0.26538  Biso   1.000  O
  O22      1.0000 0.87362  0.92510  0.26538  Biso   1.000  O
  O23      1.0000 0.37362  0.07489  0.23462  Biso   1.000  O
  O24      1.0000 0.62638  0.92510  0.23462  Biso   1.000  O
  O25      1.0000 0.50000  0.84760  0.31809  Biso   1.000  O
  O26      1.0000 0.50000  0.15240  0.31809  Biso   1.000  O
  O27      1.0000 0.00000  0.84760  0.18191  Biso   1.000  O
  O28      1.0000 0.00000  0.15240  0.18191  Biso   1.000  O
  O29      1.0000 0.00000  0.00000  0.35034  Biso   1.000  O
  O30      1.0000 0.50000  0.00000  0.14966  Biso   1.000  O
  O31      1.0000 0.81210  0.00000  0.38307  Biso   1.000  O
  O32      1.0000 0.18790  0.00000  0.38307  Biso   1.000  O
  O33      1.0000 0.68790  0.00000  0.11693  Biso   1.000  O
  O34      1.0000 0.31210  0.00000  0.11693  Biso   1.000  O
  O35      1.0000 0.80192  0.00000  0.00000  Biso   1.000  O
  O36      1.0000 0.19808  0.00000  0.00000  Biso   1.000  O
  O37      1.0000 0.18233  0.69853  0.69597  Biso   1.000  O
  O38      1.0000 0.31766  0.80147  0.69597  Biso   1.000  O
  O39      1.0000 0.31766  0.69853  0.80403  Biso   1.000  O
  O40      1.0000 0.18233  0.80147  0.80403  Biso   1.000  O
  O41      1.0000 0.31766  0.30147  0.80403  Biso   1.000  O
  O42      1.0000 0.18233  0.19853  0.80403  Biso   1.000  O
  O43      1.0000 0.18233  0.30147  0.69597  Biso   1.000  O
  O44      1.0000 0.31766  0.19853  0.69597  Biso   1.000  O
  O45      1.0000 0.14260  0.42486  0.61814  Biso   1.000  O
  O46      1.0000 0.35740  0.07514  0.61814  Biso   1.000  O
  O47      1.0000 0.35740  0.42486  0.88186  Biso   1.000  O
  O48      1.0000 0.14260  0.07514  0.88186  Biso   1.000  O
  O49      1.0000 0.35740  0.57514  0.88186  Biso   1.000  O
  O50      1.0000 0.14260  0.92486  0.88186  Biso   1.000  O
  O51      1.0000 0.14260  0.57514  0.61814  Biso   1.000  O
  O52      1.0000 0.35740  0.92486  0.61814  Biso   1.000  O
  O53      1.0000 0.37362  0.42510  0.73462  Biso   1.000  O
  O54      1.0000 0.62638  0.57489  0.73462  Biso   1.000  O
  O55      1.0000 0.12638  0.42510  0.76538  Biso   1.000  O
  O56      1.0000 0.87362  0.57489  0.76538  Biso   1.000  O
  O57      1.0000 0.12638  0.57489  0.76538  Biso   1.000  O
  O58      1.0000 0.87362  0.42510  0.76538  Biso   1.000  O
  O59      1.0000 0.37362  0.57489  0.73462  Biso   1.000  O
  O60      1.0000 0.62638  0.42510  0.73462  Biso   1.000  O
  O61      1.0000 0.50000  0.34760  0.81809  Biso   1.000  O
  O62      1.0000 0.50000  0.65240  0.81809  Biso   1.000  O
  O63      1.0000 0.00000  0.34760  0.68191  Biso   1.000  O
  O64      1.0000 0.00000  0.65240  0.68191  Biso   1.000  O
  O65      1.0000 0.00000  0.50000  0.85034  Biso   1.000  O
  O66      1.0000 0.50000  0.50000  0.64966  Biso   1.000  O
  O67      1.0000 0.81210  0.50000  0.88307  Biso   1.000  O
  O68      1.0000 0.18790  0.50000  0.88307  Biso   1.000  O
  O69      1.0000 0.68790  0.50000  0.61693  Biso   1.000  O
  O70      1.0000 0.31210  0.50000  0.61693  Biso   1.000  O
  O71      1.0000 0.80192  0.50000  0.50000  Biso   1.000  O
  O72      1.0000 0.19808  0.50000  0.50000  Biso   1.000  O
  O73      1.0000 0.68233  0.19853  0.69597  Biso   1.000  O
  O74      1.0000 0.81767  0.30147  0.69597  Biso   1.000  O
  O75      1.0000 0.81767  0.19853  0.80403  Biso   1.000  O
  O76      1.0000 0.68233  0.30147  0.80403  Biso   1.000  O
  O77      1.0000 0.81767  0.80147  0.80403  Biso   1.000  O
  O78      1.0000 0.68233  0.69853  0.80403  Biso   1.000  O
  O79      1.0000 0.68233  0.80147  0.69597  Biso   1.000  O
  O80      1.0000 0.81767  0.69853  0.69597  Biso   1.000  O
  O81      1.0000 0.64260  0.92486  0.61814  Biso   1.000  O
  O82      1.0000 0.85740  0.57514  0.61814  Biso   1.000  O
  O83      1.0000 0.85740  0.92486  0.88186  Biso   1.000  O
  O84      1.0000 0.64260  0.57514  0.88186  Biso   1.000  O
  O85      1.0000 0.85740  0.07514  0.88186  Biso   1.000  O
  O86      1.0000 0.64260  0.42486  0.88186  Biso   1.000  O
  O87      1.0000 0.64260  0.07514  0.61814  Biso   1.000  O
  O88      1.0000 0.85740  0.42486  0.61814  Biso   1.000  O
  O89      1.0000 0.87362  0.92510  0.73462  Biso   1.000  O
  O90      1.0000 0.12638  0.07489  0.73462  Biso   1.000  O
  O91      1.0000 0.62638  0.92510  0.76538  Biso   1.000  O
  O92      1.0000 0.37362  0.07489  0.76538  Biso   1.000  O
  O93      1.0000 0.62638  0.07489  0.76538  Biso   1.000  O
  O94      1.0000 0.37362  0.92510  0.76538  Biso   1.000  O
  O95      1.0000 0.87362  0.07489  0.73462  Biso   1.000  O
  O96      1.0000 0.12638  0.92510  0.73462  Biso   1.000  O
  O97      1.0000 0.00000  0.84760  0.81809  Biso   1.000  O
  O98      1.0000 0.00000  0.15240  0.81809  Biso   1.000  O
  O99      1.0000 0.50000  0.84760  0.68191  Biso   1.000  O
  O100     1.0000 0.50000  0.15240  0.68191  Biso   1.000  O
  O101     1.0000 0.50000  0.00000  0.85034  Biso   1.000  O
  O102     1.0000 0.00000  0.00000  0.64966  Biso   1.000  O
  O103     1.0000 0.31210  0.00000  0.88307  Biso   1.000  O
  O104     1.0000 0.68790  0.00000  0.88307  Biso   1.000  O
  O105     1.0000 0.18790  0.00000  0.61693  Biso   1.000  O
  O106     1.0000 0.81210  0.00000  0.61693  Biso   1.000  O
  O107     1.0000 0.30192  0.00000  0.50000  Biso   1.000  O
  O108     1.0000 0.69808  0.00000  0.50000  Biso   1.000  O
  O109     1.0000 0.68233  0.69853  0.19597  Biso   1.000  O
  O110     1.0000 0.81767  0.80147  0.19597  Biso   1.000  O
  O111     1.0000 0.81767  0.69853  0.30403  Biso   1.000  O
  O112     1.0000 0.68233  0.80147  0.30403  Biso   1.000  O
  O113     1.0000 0.81767  0.30147  0.30403  Biso   1.000  O
  O114     1.0000 0.68233  0.19853  0.30403  Biso   1.000  O
  O115     1.0000 0.68233  0.30147  0.19597  Biso   1.000  O
  O116     1.0000 0.81767  0.19853  0.19597  Biso   1.000  O
  O117     1.0000 0.64260  0.42486  0.11814  Biso   1.000  O
  O118     1.0000 0.85740  0.07514  0.11814  Biso   1.000  O
  O119     1.0000 0.85740  0.42486  0.38186  Biso   1.000  O
  O120     1.0000 0.64260  0.07514  0.38186  Biso   1.000  O
  O121     1.0000 0.85740  0.57514  0.38186  Biso   1.000  O
  O122     1.0000 0.64260  0.92486  0.38186  Biso   1.000  O
  O123     1.0000 0.64260  0.57514  0.11814  Biso   1.000  O
  O124     1.0000 0.85740  0.92486  0.11814  Biso   1.000  O
  O125     1.0000 0.87362  0.42510  0.23462  Biso   1.000  O
  O126     1.0000 0.12638  0.57489  0.23462  Biso   1.000  O
  O127     1.0000 0.62638  0.42510  0.26538  Biso   1.000  O
  O128     1.0000 0.37362  0.57489  0.26538  Biso   1.000  O
  O129     1.0000 0.62638  0.57489  0.26538  Biso   1.000  O
  O130     1.0000 0.37362  0.42510  0.26538  Biso   1.000  O
  O131     1.0000 0.87362  0.57489  0.23462  Biso   1.000  O
  O132     1.0000 0.12638  0.42510  0.23462  Biso   1.000  O
  O133     1.0000 0.00000  0.34760  0.31809  Biso   1.000  O
  O134     1.0000 0.00000  0.65240  0.31809  Biso   1.000  O
  O135     1.0000 0.50000  0.34760  0.18191  Biso   1.000  O
  O136     1.0000 0.50000  0.65240  0.18191  Biso   1.000  O
  O137     1.0000 0.50000  0.50000  0.35034  Biso   1.000  O
  O138     1.0000 0.00000  0.50000  0.14966  Biso   1.000  O
  O139     1.0000 0.31210  0.50000  0.38307  Biso   1.000  O
  O140     1.0000 0.68790  0.50000  0.38307  Biso   1.000  O
  O141     1.0000 0.18790  0.50000  0.11693  Biso   1.000  O
  O142     1.0000 0.81210  0.50000  0.11693  Biso   1.000  O
  O143     1.0000 0.30192  0.50000  0.00000  Biso   1.000  O
  O144     1.0000 0.69808  0.50000  0.00000  Biso   1.000  O
  Ir1      1.0000 0.38715  0.62493  0.19027  Biso   1.000  Ir
  Ir2      1.0000 0.11285  0.87507  0.19027  Biso   1.000  Ir
  Ir3      1.0000 0.11285  0.62493  0.30973  Biso   1.000  Ir
  Ir4      1.0000 0.38715  0.87507  0.30973  Biso   1.000  Ir
  Ir5      1.0000 0.11285  0.37507  0.30973  Biso   1.000  Ir
  Ir6      1.0000 0.38715  0.12493  0.30973  Biso   1.000  Ir
  Ir7      1.0000 0.38715  0.37507  0.19027  Biso   1.000  Ir
  Ir8      1.0000 0.11285  0.12493  0.19027  Biso   1.000  Ir
  Ir9      1.0000 0.61004  0.00000  0.18411  Biso   1.000  Ir
  Ir10     1.0000 0.38996  0.00000  0.18411  Biso   1.000  Ir
  Ir11     1.0000 0.88996  0.00000  0.31589  Biso   1.000  Ir
  Ir12     1.0000 0.11004  0.00000  0.31589  Biso   1.000  Ir
  Ir13     1.0000 0.30102  0.00000  0.41111  Biso   1.000  Ir
  Ir14     1.0000 0.69898  0.00000  0.41111  Biso   1.000  Ir
  Ir15     1.0000 0.19898  0.00000  0.08889  Biso   1.000  Ir
  Ir16     1.0000 0.80102  0.00000  0.08889  Biso   1.000  Ir
  Ir17     1.0000 0.25000  0.25000  0.25000  Biso   1.000  Ir
  Ir18     1.0000 0.25000  0.75000  0.25000  Biso   1.000  Ir
  Ir19     1.0000 0.38715  0.12493  0.69027  Biso   1.000  Ir
  Ir20     1.0000 0.11285  0.37507  0.69027  Biso   1.000  Ir
  Ir21     1.0000 0.11285  0.12493  0.80973  Biso   1.000  Ir
  Ir22     1.0000 0.38715  0.37507  0.80973  Biso   1.000  Ir
  Ir23     1.0000 0.11285  0.87507  0.80973  Biso   1.000  Ir
  Ir24     1.0000 0.38715  0.62493  0.80973  Biso   1.000  Ir
  Ir25     1.0000 0.38715  0.87507  0.69027  Biso   1.000  Ir
  Ir26     1.0000 0.11285  0.62493  0.69027  Biso   1.000  Ir
  Ir27     1.0000 0.61004  0.50000  0.68411  Biso   1.000  Ir
  Ir28     1.0000 0.38996  0.50000  0.68411  Biso   1.000  Ir
  Ir29     1.0000 0.88996  0.50000  0.81589  Biso   1.000  Ir
  Ir30     1.0000 0.11004  0.50000  0.81589  Biso   1.000  Ir
  Ir31     1.0000 0.30102  0.50000  0.91111  Biso   1.000  Ir
  Ir32     1.0000 0.69898  0.50000  0.91111  Biso   1.000  Ir
  Ir33     1.0000 0.19898  0.50000  0.58889  Biso   1.000  Ir
  Ir34     1.0000 0.80102  0.50000  0.58889  Biso   1.000  Ir
  Ir35     1.0000 0.25000  0.75000  0.75000  Biso   1.000  Ir
  Ir36     1.0000 0.25000  0.25000  0.75000  Biso   1.000  Ir
  Ir37     1.0000 0.88715  0.62493  0.69027  Biso   1.000  Ir
  Ir38     1.0000 0.61285  0.87507  0.69027  Biso   1.000  Ir
  Ir39     1.0000 0.61285  0.62493  0.80973  Biso   1.000  Ir
  Ir40     1.0000 0.88715  0.87507  0.80973  Biso   1.000  Ir
  Ir41     1.0000 0.61285  0.37507  0.80973  Biso   1.000  Ir
  Ir42     1.0000 0.88715  0.12493  0.80973  Biso   1.000  Ir
  Ir43     1.0000 0.88715  0.37507  0.69027  Biso   1.000  Ir
  Ir44     1.0000 0.61285  0.12493  0.69027  Biso   1.000  Ir
  Ir45     1.0000 0.11004  0.00000  0.68411  Biso   1.000  Ir
  Ir46     1.0000 0.88996  0.00000  0.68411  Biso   1.000  Ir
  Ir47     1.0000 0.38996  0.00000  0.81589  Biso   1.000  Ir
  Ir48     1.0000 0.61004  0.00000  0.81589  Biso   1.000  Ir
  Ir49     1.0000 0.80102  0.00000  0.91111  Biso   1.000  Ir
  Ir50     1.0000 0.19898  0.00000  0.91111  Biso   1.000  Ir
  Ir51     1.0000 0.69898  0.00000  0.58889  Biso   1.000  Ir
  Ir52     1.0000 0.30102  0.00000  0.58889  Biso   1.000  Ir
  Ir53     1.0000 0.75000  0.25000  0.75000  Biso   1.000  Ir
  Ir54     1.0000 0.75000  0.75000  0.75000  Biso   1.000  Ir
  Ir55     1.0000 0.88715  0.12493  0.19027  Biso   1.000  Ir
  Ir56     1.0000 0.61285  0.37507  0.19027  Biso   1.000  Ir
  Ir57     1.0000 0.61285  0.12493  0.30973  Biso   1.000  Ir
  Ir58     1.0000 0.88715  0.37507  0.30973  Biso   1.000  Ir
  Ir59     1.0000 0.61285  0.87507  0.30973  Biso   1.000  Ir
  Ir60     1.0000 0.88715  0.62493  0.30973  Biso   1.000  Ir
  Ir61     1.0000 0.88715  0.87507  0.19027  Biso   1.000  Ir
  Ir62     1.0000 0.61285  0.62493  0.19027  Biso   1.000  Ir
  Ir63     1.0000 0.11004  0.50000  0.18411  Biso   1.000  Ir
  Ir64     1.0000 0.88996  0.50000  0.18411  Biso   1.000  Ir
  Ir65     1.0000 0.38996  0.50000  0.31589  Biso   1.000  Ir
  Ir66     1.0000 0.61004  0.50000  0.31589  Biso   1.000  Ir
  Ir67     1.0000 0.80102  0.50000  0.41111  Biso   1.000  Ir
  Ir68     1.0000 0.19898  0.50000  0.41111  Biso   1.000  Ir
  Ir69     1.0000 0.69898  0.50000  0.08889  Biso   1.000  Ir
  Ir70     1.0000 0.30102  0.50000  0.08889  Biso   1.000  Ir
  Ir71     1.0000 0.75000  0.75000  0.25000  Biso   1.000  Ir
  Ir72     1.0000 0.75000  0.25000  0.25000  Biso   1.000  Ir
