data_image0
_cell_length_a       33.8322
_cell_length_b       6.90886
_cell_length_c       14.7767
_cell_angle_alpha    90
_cell_angle_beta     93.7899
_cell_angle_gamma    90

_symmetry_space_group_name_H-M    "P 1"
_symmetry_int_tables_number       1

loop_
  _symmetry_equiv_pos_as_xyz
  'x, y, z'

loop_
  _atom_site_label
  _atom_site_occupancy
  _atom_site_fract_x
  _atom_site_fract_y
  _atom_site_fract_z
  _atom_site_thermal_displace_type
  _atom_site_B_iso_or_equiv
  _atom_site_type_symbol
  O1       1.0000 0.49500  0.50000  0.37925  Biso   1.000  O
  O2       1.0000 0.00500  0.00000  0.62075  Biso   1.000  O
  O3       1.0000 0.42214  0.74968  0.65734  Biso   1.000  O
  O4       1.0000 0.07786  0.24968  0.34266  Biso   1.000  O
  O5       1.0000 0.07786  0.75032  0.34266  Biso   1.000  O
  O6       1.0000 0.42214  0.25032  0.65734  Biso   1.000  O
  O7       1.0000 0.40635  0.50000  0.45097  Biso   1.000  O
  O8       1.0000 0.09365  0.00000  0.54904  Biso   1.000  O
  O9       1.0000 0.40575  0.74954  0.25296  Biso   1.000  O
  O10      1.0000 0.09425  0.24954  0.74704  Biso   1.000  O
  O11      1.0000 0.09425  0.75046  0.74704  Biso   1.000  O
  O12      1.0000 0.40575  0.25046  0.25296  Biso   1.000  O
  O13      1.0000 0.34671  0.00000  0.06137  Biso   1.000  O
  O14      1.0000 0.15329  0.50000  0.93863  Biso   1.000  O
  O15      1.0000 0.34549  0.00000  0.48690  Biso   1.000  O
  O16      1.0000 0.15451  0.50000  0.51310  Biso   1.000  O
  O17      1.0000 0.34369  0.00000  0.71191  Biso   1.000  O
  O18      1.0000 0.15631  0.50000  0.28809  Biso   1.000  O
  O19      1.0000 0.31282  0.00000  0.25216  Biso   1.000  O
  O20      1.0000 0.18718  0.50000  0.74784  Biso   1.000  O
  O21      1.0000 0.27788  0.00000  0.83811  Biso   1.000  O
  O22      1.0000 0.22212  0.50000  0.16189  Biso   1.000  O
  O23      1.0000 0.25327  0.75000  0.36780  Biso   1.000  O
  O24      1.0000 0.24672  0.25000  0.63220  Biso   1.000  O
  O25      1.0000 0.24672  0.75000  0.63220  Biso   1.000  O
  O26      1.0000 0.25327  0.25000  0.36780  Biso   1.000  O
  O27      1.0000 0.25000  0.25000  0.00000  Biso   1.000  O
  O28      1.0000 0.25000  0.75000  0.00000  Biso   1.000  O
  O29      1.0000 0.99500  0.00000  0.37925  Biso   1.000  O
  O30      1.0000 0.50500  0.50000  0.62075  Biso   1.000  O
  O31      1.0000 0.92214  0.24968  0.65734  Biso   1.000  O
  O32      1.0000 0.57786  0.74968  0.34266  Biso   1.000  O
  O33      1.0000 0.57786  0.25032  0.34266  Biso   1.000  O
  O34      1.0000 0.92214  0.75032  0.65734  Biso   1.000  O
  O35      1.0000 0.90635  0.00000  0.45097  Biso   1.000  O
  O36      1.0000 0.59365  0.50000  0.54904  Biso   1.000  O
  O37      1.0000 0.90575  0.24954  0.25296  Biso   1.000  O
  O38      1.0000 0.59425  0.74954  0.74704  Biso   1.000  O
  O39      1.0000 0.59425  0.25046  0.74704  Biso   1.000  O
  O40      1.0000 0.90575  0.75046  0.25296  Biso   1.000  O
  O41      1.0000 0.84671  0.50000  0.06137  Biso   1.000  O
  O42      1.0000 0.65328  0.00000  0.93863  Biso   1.000  O
  O43      1.0000 0.84549  0.50000  0.48690  Biso   1.000  O
  O44      1.0000 0.65451  0.00000  0.51310  Biso   1.000  O
  O45      1.0000 0.84369  0.50000  0.71191  Biso   1.000  O
  O46      1.0000 0.65631  0.00000  0.28809  Biso   1.000  O
  O47      1.0000 0.81282  0.50000  0.25216  Biso   1.000  O
  O48      1.0000 0.68718  0.00000  0.74784  Biso   1.000  O
  O49      1.0000 0.77788  0.50000  0.83811  Biso   1.000  O
  O50      1.0000 0.72212  0.00000  0.16189  Biso   1.000  O
  O51      1.0000 0.75327  0.25000  0.36780  Biso   1.000  O
  O52      1.0000 0.74672  0.75000  0.63220  Biso   1.000  O
  O53      1.0000 0.74672  0.25000  0.63220  Biso   1.000  O
  O54      1.0000 0.75327  0.75000  0.36780  Biso   1.000  O
  O55      1.0000 0.75000  0.75000  0.00000  Biso   1.000  O
  O56      1.0000 0.75000  0.25000  0.00000  Biso   1.000  O
  Ir1      1.0000 0.43846  0.50000  0.59515  Biso   1.000  Ir
  Ir2      1.0000 0.06153  0.00000  0.40485  Biso   1.000  Ir
  Ir3      1.0000 0.42773  0.50000  0.33432  Biso   1.000  Ir
  Ir4      1.0000 0.07227  0.00000  0.66568  Biso   1.000  Ir
  Ir5      1.0000 0.38225  0.00000  0.62657  Biso   1.000  Ir
  Ir6      1.0000 0.11775  0.50000  0.37343  Biso   1.000  Ir
  Ir7      1.0000 0.36755  0.00000  0.20612  Biso   1.000  Ir
  Ir8      1.0000 0.13245  0.50000  0.79388  Biso   1.000  Ir
  Ir9      1.0000 0.29146  0.00000  0.36807  Biso   1.000  Ir
  Ir10     1.0000 0.20854  0.50000  0.63192  Biso   1.000  Ir
  Ir11     1.0000 0.28157  0.00000  0.97491  Biso   1.000  Ir
  Ir12     1.0000 0.21843  0.50000  0.02509  Biso   1.000  Ir
  Ir13     1.0000 0.27838  0.00000  0.70391  Biso   1.000  Ir
  Ir14     1.0000 0.22162  0.50000  0.29609  Biso   1.000  Ir
  Ir15     1.0000 0.93846  0.00000  0.59515  Biso   1.000  Ir
  Ir16     1.0000 0.56153  0.50000  0.40485  Biso   1.000  Ir
  Ir17     1.0000 0.92773  0.00000  0.33432  Biso   1.000  Ir
  Ir18     1.0000 0.57227  0.50000  0.66568  Biso   1.000  Ir
  Ir19     1.0000 0.88225  0.50000  0.62657  Biso   1.000  Ir
  Ir20     1.0000 0.61775  0.00000  0.37343  Biso   1.000  Ir
  Ir21     1.0000 0.86755  0.50000  0.20612  Biso   1.000  Ir
  Ir22     1.0000 0.63245  0.00000  0.79388  Biso   1.000  Ir
  Ir23     1.0000 0.79146  0.50000  0.36807  Biso   1.000  Ir
  Ir24     1.0000 0.70854  0.00000  0.63192  Biso   1.000  Ir
  Ir25     1.0000 0.78157  0.50000  0.97491  Biso   1.000  Ir
  Ir26     1.0000 0.71843  0.00000  0.02509  Biso   1.000  Ir
  Ir27     1.0000 0.77838  0.50000  0.70391  Biso   1.000  Ir
  Ir28     1.0000 0.72162  0.00000  0.29609  Biso   1.000  Ir
