data_image0
_cell_length_a       10.8839
_cell_length_b       11.2362
_cell_length_c       19.6355
_cell_angle_alpha    90
_cell_angle_beta     90
_cell_angle_gamma    90

_symmetry_space_group_name_H-M    "P 1"
_symmetry_int_tables_number       1

loop_
  _symmetry_equiv_pos_as_xyz
  'x, y, z'

loop_
  _atom_site_label
  _atom_site_occupancy
  _atom_site_fract_x
  _atom_site_fract_y
  _atom_site_fract_z
  _atom_site_thermal_displace_type
  _atom_site_B_iso_or_equiv
  _atom_site_type_symbol
  O1       1.0000 0.33550  0.85615  0.38711  Biso   1.000  O
  O2       1.0000 0.66450  0.14385  0.88711  Biso   1.000  O
  O3       1.0000 0.83550  0.14385  0.38711  Biso   1.000  O
  O4       1.0000 0.16450  0.85615  0.88711  Biso   1.000  O
  O5       1.0000 0.09135  0.74579  0.45777  Biso   1.000  O
  O6       1.0000 0.90865  0.25421  0.95777  Biso   1.000  O
  O7       1.0000 0.59135  0.25421  0.45777  Biso   1.000  O
  O8       1.0000 0.40865  0.74579  0.95777  Biso   1.000  O
  O9       1.0000 0.08995  0.81422  0.29886  Biso   1.000  O
  O10      1.0000 0.91005  0.18578  0.79886  Biso   1.000  O
  O11      1.0000 0.58995  0.18578  0.29886  Biso   1.000  O
  O12      1.0000 0.41005  0.81422  0.79886  Biso   1.000  O
  O13      1.0000 0.09792  0.01979  0.41291  Biso   1.000  O
  O14      1.0000 0.90208  0.98021  0.91291  Biso   1.000  O
  O15      1.0000 0.59792  0.98021  0.41291  Biso   1.000  O
  O16      1.0000 0.40208  0.01979  0.91291  Biso   1.000  O
  O17      1.0000 0.14194  0.36208  0.80838  Biso   1.000  O
  O18      1.0000 0.85806  0.63792  0.30838  Biso   1.000  O
  O19      1.0000 0.64194  0.63792  0.80838  Biso   1.000  O
  O20      1.0000 0.35806  0.36208  0.30838  Biso   1.000  O
  O21      1.0000 0.87071  0.46705  0.77774  Biso   1.000  O
  O22      1.0000 0.12929  0.53295  0.27775  Biso   1.000  O
  O23      1.0000 0.37071  0.53295  0.77774  Biso   1.000  O
  O24      1.0000 0.62929  0.46705  0.27775  Biso   1.000  O
  O25      1.0000 0.01214  0.31429  0.66397  Biso   1.000  O
  O26      1.0000 0.98786  0.68571  0.16397  Biso   1.000  O
  O27      1.0000 0.51214  0.68571  0.66397  Biso   1.000  O
  O28      1.0000 0.48786  0.31429  0.16397  Biso   1.000  O
  O29      1.0000 0.98491  0.76365  0.00742  Biso   1.000  O
  O30      1.0000 0.01510  0.23636  0.50742  Biso   1.000  O
  O31      1.0000 0.48491  0.23636  0.00742  Biso   1.000  O
  O32      1.0000 0.51509  0.76365  0.50742  Biso   1.000  O
  O33      1.0000 0.22630  0.64022  0.07070  Biso   1.000  O
  O34      1.0000 0.77370  0.35978  0.57070  Biso   1.000  O
  O35      1.0000 0.72630  0.35978  0.07070  Biso   1.000  O
  O36      1.0000 0.27370  0.64022  0.57070  Biso   1.000  O
  O37      1.0000 0.98651  0.48335  0.04671  Biso   1.000  O
  O38      1.0000 0.01349  0.51665  0.54671  Biso   1.000  O
  O39      1.0000 0.48651  0.51665  0.04671  Biso   1.000  O
  O40      1.0000 0.51349  0.48335  0.54671  Biso   1.000  O
  O41      1.0000 0.08497  0.28256  0.35053  Biso   1.000  O
  O42      1.0000 0.91502  0.71744  0.85053  Biso   1.000  O
  O43      1.0000 0.58498  0.71744  0.35053  Biso   1.000  O
  O44      1.0000 0.41503  0.28256  0.85053  Biso   1.000  O
  O45      1.0000 0.22433  0.49321  0.43198  Biso   1.000  O
  O46      1.0000 0.77567  0.50679  0.93198  Biso   1.000  O
  O47      1.0000 0.72433  0.50679  0.43198  Biso   1.000  O
  O48      1.0000 0.27567  0.49321  0.93198  Biso   1.000  O
  Ir1      1.0000 0.15468  0.86024  0.38919  Biso   1.000  Ir
  Ir2      1.0000 0.84532  0.13976  0.88919  Biso   1.000  Ir
  Ir3      1.0000 0.65468  0.13976  0.38919  Biso   1.000  Ir
  Ir4      1.0000 0.34532  0.86024  0.88919  Biso   1.000  Ir
  Ir5      1.0000 0.04521  0.64372  0.07241  Biso   1.000  Ir
  Ir6      1.0000 0.95479  0.35628  0.57241  Biso   1.000  Ir
  Ir7      1.0000 0.54521  0.35628  0.07241  Biso   1.000  Ir
  Ir8      1.0000 0.45479  0.64372  0.57241  Biso   1.000  Ir
  Ir9      1.0000 0.19930  0.41742  0.34208  Biso   1.000  Ir
  Ir10     1.0000 0.80070  0.58259  0.84208  Biso   1.000  Ir
  Ir11     1.0000 0.69930  0.58259  0.34208  Biso   1.000  Ir
  Ir12     1.0000 0.30070  0.41742  0.84208  Biso   1.000  Ir
  Ir13     1.0000 0.98446  0.33296  0.76227  Biso   1.000  Ir
  Ir14     1.0000 0.01554  0.66704  0.26227  Biso   1.000  Ir
  Ir15     1.0000 0.48446  0.66704  0.76227  Biso   1.000  Ir
  Ir16     1.0000 0.51554  0.33296  0.26227  Biso   1.000  Ir
  Ir17     1.0000 0.14984  0.59844  0.50160  Biso   1.000  Ir
  Ir18     1.0000 0.85016  0.40156  0.00160  Biso   1.000  Ir
  Ir19     1.0000 0.64984  0.40156  0.50160  Biso   1.000  Ir
  Ir20     1.0000 0.35016  0.59844  0.00160  Biso   1.000  Ir
  Ir21     1.0000 0.00718  0.17015  0.41446  Biso   1.000  Ir
  Ir22     1.0000 0.99282  0.82985  0.91446  Biso   1.000  Ir
  Ir23     1.0000 0.50718  0.82985  0.41446  Biso   1.000  Ir
  Ir24     1.0000 0.49282  0.17015  0.91446  Biso   1.000  Ir
