data_image0
_cell_length_a       16.296
_cell_length_b       16.2961
_cell_length_c       8.91306
_cell_angle_alpha    90
_cell_angle_beta     90
_cell_angle_gamma    120

_symmetry_space_group_name_H-M    "P 1"
_symmetry_int_tables_number       1

loop_
  _symmetry_equiv_pos_as_xyz
  'x, y, z'

loop_
  _atom_site_label
  _atom_site_occupancy
  _atom_site_fract_x
  _atom_site_fract_y
  _atom_site_fract_z
  _atom_site_thermal_displace_type
  _atom_site_B_iso_or_equiv
  _atom_site_type_symbol
  O1       1.0000 0.89558  0.25149  0.33051  Biso   1.000  O
  O2       1.0000 0.08184  0.31075  0.99717  Biso   1.000  O
  O3       1.0000 0.02258  0.43776  0.66384  Biso   1.000  O
  O4       1.0000 0.10442  0.74851  0.66949  Biso   1.000  O
  O5       1.0000 0.91816  0.68925  0.00283  Biso   1.000  O
  O6       1.0000 0.97742  0.56224  0.33616  Biso   1.000  O
  O7       1.0000 0.79568  0.51140  0.65960  Biso   1.000  O
  O8       1.0000 0.15527  0.61762  0.99293  Biso   1.000  O
  O9       1.0000 0.04905  0.87098  0.32626  Biso   1.000  O
  O10      1.0000 0.20432  0.48860  0.34041  Biso   1.000  O
  O11      1.0000 0.84473  0.38238  0.00707  Biso   1.000  O
  O12      1.0000 0.95095  0.12902  0.67374  Biso   1.000  O
  O13      1.0000 0.56224  0.58482  0.66384  Biso   1.000  O
  O14      1.0000 0.74851  0.64409  0.33051  Biso   1.000  O
  O15      1.0000 0.68925  0.77109  0.99717  Biso   1.000  O
  O16      1.0000 0.77109  0.08184  0.00283  Biso   1.000  O
  O17      1.0000 0.58482  0.02258  0.33616  Biso   1.000  O
  O18      1.0000 0.64409  0.89558  0.66949  Biso   1.000  O
  O19      1.0000 0.46235  0.84473  0.99293  Biso   1.000  O
  O20      1.0000 0.82194  0.95095  0.32626  Biso   1.000  O
  O21      1.0000 0.71571  0.20432  0.65960  Biso   1.000  O
  O22      1.0000 0.87098  0.82194  0.67374  Biso   1.000  O
  O23      1.0000 0.51140  0.71571  0.34041  Biso   1.000  O
  O24      1.0000 0.61762  0.46235  0.00707  Biso   1.000  O
  O25      1.0000 0.22891  0.91816  0.99717  Biso   1.000  O
  O26      1.0000 0.41518  0.97742  0.66384  Biso   1.000  O
  O27      1.0000 0.35591  0.10442  0.33051  Biso   1.000  O
  O28      1.0000 0.43776  0.41518  0.33616  Biso   1.000  O
  O29      1.0000 0.25149  0.35591  0.66949  Biso   1.000  O
  O30      1.0000 0.31075  0.22891  0.00283  Biso   1.000  O
  O31      1.0000 0.12902  0.17806  0.32626  Biso   1.000  O
  O32      1.0000 0.48860  0.28429  0.65960  Biso   1.000  O
  O33      1.0000 0.38238  0.53765  0.99293  Biso   1.000  O
  O34      1.0000 0.53765  0.15527  0.00707  Biso   1.000  O
  O35      1.0000 0.17806  0.04905  0.67374  Biso   1.000  O
  O36      1.0000 0.28429  0.79568  0.34041  Biso   1.000  O
  Ir1      1.0000 0.95742  0.11306  0.14696  Biso   1.000  Ir
  Ir2      1.0000 0.22027  0.51103  0.81362  Biso   1.000  Ir
  Ir3      1.0000 0.82230  0.37591  0.48029  Biso   1.000  Ir
  Ir4      1.0000 0.04258  0.88694  0.85304  Biso   1.000  Ir
  Ir5      1.0000 0.77973  0.48897  0.18638  Biso   1.000  Ir
  Ir6      1.0000 0.17770  0.62409  0.51971  Biso   1.000  Ir
  Ir7      1.0000 0.62409  0.44639  0.48029  Biso   1.000  Ir
  Ir8      1.0000 0.88694  0.84437  0.14696  Biso   1.000  Ir
  Ir9      1.0000 0.48897  0.70924  0.81362  Biso   1.000  Ir
  Ir10     1.0000 0.70924  0.22027  0.18638  Biso   1.000  Ir
  Ir11     1.0000 0.44639  0.82230  0.51971  Biso   1.000  Ir
  Ir12     1.0000 0.84437  0.95742  0.85304  Biso   1.000  Ir
  Ir13     1.0000 0.29076  0.77973  0.81362  Biso   1.000  Ir
  Ir14     1.0000 0.55361  0.17770  0.48029  Biso   1.000  Ir
  Ir15     1.0000 0.15563  0.04258  0.14696  Biso   1.000  Ir
  Ir16     1.0000 0.37591  0.55361  0.51971  Biso   1.000  Ir
  Ir17     1.0000 0.11306  0.15563  0.85304  Biso   1.000  Ir
  Ir18     1.0000 0.51103  0.29076  0.18638  Biso   1.000  Ir
