data_image0
_cell_length_a       8.65245
_cell_length_b       4.24371
_cell_length_c       8.51153
_cell_angle_alpha    90
_cell_angle_beta     90.1548
_cell_angle_gamma    90

_symmetry_space_group_name_H-M    "P 1"
_symmetry_int_tables_number       1

loop_
  _symmetry_equiv_pos_as_xyz
  'x, y, z'

loop_
  _atom_site_label
  _atom_site_occupancy
  _atom_site_fract_x
  _atom_site_fract_y
  _atom_site_fract_z
  _atom_site_thermal_displace_type
  _atom_site_B_iso_or_equiv
  _atom_site_type_symbol
  Ir1      1.0000 0.00158  0.97342  0.99958  Biso   1.000  Ir
  Ir2      1.0000 0.00158  0.02658  0.49958  Biso   1.000  Ir
  Ir3      1.0000 0.55188  0.47609  0.75201  Biso   1.000  Ir
  Ir4      1.0000 0.55188  0.52391  0.25201  Biso   1.000  Ir
  O1       1.0000 0.27858  0.93802  0.74431  Biso   1.000  O
  O2       1.0000 0.27858  0.06198  0.24431  Biso   1.000  O
  O3       1.0000 0.64440  0.00553  0.50053  Biso   1.000  O
  O4       1.0000 0.64440  0.99447  0.00053  Biso   1.000  O
  O5       1.0000 0.90923  0.50492  0.25097  Biso   1.000  O
  O6       1.0000 0.90923  0.49508  0.75097  Biso   1.000  O
  O7       1.0000 0.27533  0.43092  0.00760  Biso   1.000  O
  O8       1.0000 0.27533  0.56908  0.50760  Biso   1.000  O
