data_image0
_cell_length_a       5.45071
_cell_length_b       5.4507
_cell_length_c       109.022
_cell_angle_alpha    90
_cell_angle_beta     90
_cell_angle_gamma    120

_symmetry_space_group_name_H-M    "P 1"
_symmetry_int_tables_number       1

loop_
  _symmetry_equiv_pos_as_xyz
  'x, y, z'

loop_
  _atom_site_label
  _atom_site_occupancy
  _atom_site_fract_x
  _atom_site_fract_y
  _atom_site_fract_z
  _atom_site_thermal_displace_type
  _atom_site_B_iso_or_equiv
  _atom_site_type_symbol
  Ir1      1.0000 0.66667  0.33333  0.64999  Biso   1.000  Ir
  Ir2      1.0000 0.66667  0.33333  0.44998  Biso   1.000  Ir
  Ir3      1.0000 0.33333  0.66667  0.38335  Biso   1.000  Ir
  Ir4      1.0000 0.33333  0.66667  0.51668  Biso   1.000  Ir
  Ir5      1.0000 0.66667  0.33333  0.58333  Biso   1.000  Ir
  Ir6      1.0000 0.33333  0.66667  0.98333  Biso   1.000  Ir
  Ir7      1.0000 0.33333  0.66667  0.78331  Biso   1.000  Ir
  Ir8      1.0000 0.00000  0.00000  0.71669  Biso   1.000  Ir
  Ir9      1.0000 0.00000  0.00000  0.85001  Biso   1.000  Ir
  Ir10     1.0000 0.33333  0.66667  0.91667  Biso   1.000  Ir
  Ir11     1.0000 0.00000  0.00000  0.31666  Biso   1.000  Ir
  Ir12     1.0000 0.00000  0.00000  0.11665  Biso   1.000  Ir
  Ir13     1.0000 0.66667  0.33333  0.05002  Biso   1.000  Ir
  Ir14     1.0000 0.66667  0.33333  0.18335  Biso   1.000  Ir
  Ir15     1.0000 0.00000  0.00000  0.25000  Biso   1.000  Ir
  O1       1.0000 0.00000  0.00000  0.63424  Biso   1.000  O
  O2       1.0000 0.00000  0.00000  0.56758  Biso   1.000  O
  O3       1.0000 0.66667  0.33333  0.53243  Biso   1.000  O
  O4       1.0000 0.33333  0.66667  0.46575  Biso   1.000  O
  O5       1.0000 0.00000  0.00000  0.36758  Biso   1.000  O
  O6       1.0000 0.00000  0.00000  0.43423  Biso   1.000  O
  O7       1.0000 0.33333  0.66667  0.66576  Biso   1.000  O
  O8       1.0000 0.00000  0.00000  0.50091  Biso   1.000  O
  O9       1.0000 0.66667  0.33333  0.39910  Biso   1.000  O
  O10      1.0000 0.33333  0.66667  0.59909  Biso   1.000  O
  O11      1.0000 0.66667  0.33333  0.96757  Biso   1.000  O
  O12      1.0000 0.66667  0.33333  0.90091  Biso   1.000  O
  O13      1.0000 0.33333  0.66667  0.86577  Biso   1.000  O
  O14      1.0000 0.00000  0.00000  0.79908  Biso   1.000  O
  O15      1.0000 0.66667  0.33333  0.70091  Biso   1.000  O
  O16      1.0000 0.66667  0.33333  0.76756  Biso   1.000  O
  O17      1.0000 0.00000  0.00000  0.99909  Biso   1.000  O
  O18      1.0000 0.66667  0.33333  0.83425  Biso   1.000  O
  O19      1.0000 0.33333  0.66667  0.73244  Biso   1.000  O
  O20      1.0000 0.00000  0.00000  0.93242  Biso   1.000  O
  O21      1.0000 0.33333  0.66667  0.30091  Biso   1.000  O
  O22      1.0000 0.33333  0.66667  0.23424  Biso   1.000  O
  O23      1.0000 0.00000  0.00000  0.19910  Biso   1.000  O
  O24      1.0000 0.66667  0.33333  0.13241  Biso   1.000  O
  O25      1.0000 0.33333  0.66667  0.03425  Biso   1.000  O
  O26      1.0000 0.33333  0.66667  0.10089  Biso   1.000  O
  O27      1.0000 0.66667  0.33333  0.33242  Biso   1.000  O
  O28      1.0000 0.33333  0.66667  0.16758  Biso   1.000  O
  O29      1.0000 0.00000  0.00000  0.06577  Biso   1.000  O
  O30      1.0000 0.66667  0.33333  0.26576  Biso   1.000  O
