data_image0
_cell_length_a       18.1755
_cell_length_b       18.1755
_cell_length_c       5.69728
_cell_angle_alpha    90
_cell_angle_beta     90
_cell_angle_gamma    90

_symmetry_space_group_name_H-M    "P 1"
_symmetry_int_tables_number       1

loop_
  _symmetry_equiv_pos_as_xyz
  'x, y, z'

loop_
  _atom_site_label
  _atom_site_occupancy
  _atom_site_fract_x
  _atom_site_fract_y
  _atom_site_fract_z
  _atom_site_thermal_displace_type
  _atom_site_B_iso_or_equiv
  _atom_site_type_symbol
  O1       1.0000 0.13150  0.81037  0.64784  Biso   1.000  O
  O2       1.0000 0.86850  0.18963  0.64784  Biso   1.000  O
  O3       1.0000 0.18963  0.13150  0.14784  Biso   1.000  O
  O4       1.0000 0.81037  0.86850  0.14784  Biso   1.000  O
  O5       1.0000 0.06038  0.89384  0.34724  Biso   1.000  O
  O6       1.0000 0.93962  0.10616  0.34724  Biso   1.000  O
  O7       1.0000 0.10616  0.06038  0.84724  Biso   1.000  O
  O8       1.0000 0.89384  0.93962  0.84724  Biso   1.000  O
  O9       1.0000 0.12874  0.31075  0.64684  Biso   1.000  O
  O10      1.0000 0.87126  0.68925  0.64684  Biso   1.000  O
  O11      1.0000 0.68925  0.12874  0.14684  Biso   1.000  O
  O12      1.0000 0.31075  0.87126  0.14684  Biso   1.000  O
  O13      1.0000 0.05718  0.39498  0.34994  Biso   1.000  O
  O14      1.0000 0.94282  0.60502  0.34994  Biso   1.000  O
  O15      1.0000 0.60502  0.05718  0.84994  Biso   1.000  O
  O16      1.0000 0.39498  0.94282  0.84994  Biso   1.000  O
  O17      1.0000 0.63164  0.81287  0.64138  Biso   1.000  O
  O18      1.0000 0.36836  0.18713  0.64138  Biso   1.000  O
  O19      1.0000 0.18713  0.63164  0.14138  Biso   1.000  O
  O20      1.0000 0.81287  0.36836  0.14138  Biso   1.000  O
  O21      1.0000 0.56039  0.89506  0.34323  Biso   1.000  O
  O22      1.0000 0.43961  0.10494  0.34323  Biso   1.000  O
  O23      1.0000 0.10494  0.56039  0.84323  Biso   1.000  O
  O24      1.0000 0.89506  0.43961  0.84323  Biso   1.000  O
  O25      1.0000 0.62898  0.31274  0.35894  Biso   1.000  O
  O26      1.0000 0.37102  0.68726  0.35894  Biso   1.000  O
  O27      1.0000 0.68726  0.62898  0.85894  Biso   1.000  O
  O28      1.0000 0.31274  0.37102  0.85894  Biso   1.000  O
  O29      1.0000 0.55763  0.39583  0.65410  Biso   1.000  O
  O30      1.0000 0.44237  0.60417  0.65410  Biso   1.000  O
  O31      1.0000 0.60417  0.55763  0.15410  Biso   1.000  O
  O32      1.0000 0.39583  0.44237  0.15410  Biso   1.000  O
  Ir1      1.0000 0.14643  0.89792  0.50629  Biso   1.000  Ir
  Ir2      1.0000 0.85357  0.10207  0.50629  Biso   1.000  Ir
  Ir3      1.0000 0.10207  0.14643  0.00629  Biso   1.000  Ir
  Ir4      1.0000 0.89792  0.85357  0.00629  Biso   1.000  Ir
  Ir5      1.0000 0.14443  0.39781  0.50302  Biso   1.000  Ir
  Ir6      1.0000 0.85557  0.60219  0.50302  Biso   1.000  Ir
  Ir7      1.0000 0.60219  0.14443  0.00302  Biso   1.000  Ir
  Ir8      1.0000 0.39781  0.85557  0.00302  Biso   1.000  Ir
  Ir9      1.0000 0.64524  0.90181  0.50869  Biso   1.000  Ir
  Ir10     1.0000 0.35476  0.09819  0.50869  Biso   1.000  Ir
  Ir11     1.0000 0.09819  0.64524  0.00869  Biso   1.000  Ir
  Ir12     1.0000 0.90181  0.35476  0.00869  Biso   1.000  Ir
  Ir13     1.0000 0.64332  0.40152  0.49249  Biso   1.000  Ir
  Ir14     1.0000 0.35668  0.59848  0.49249  Biso   1.000  Ir
  Ir15     1.0000 0.59848  0.64332  0.99250  Biso   1.000  Ir
  Ir16     1.0000 0.40152  0.35668  0.99250  Biso   1.000  Ir
