data_image0
_cell_length_a       22.4839
_cell_length_b       22.4839
_cell_length_c       11.364
_cell_angle_alpha    90
_cell_angle_beta     90
_cell_angle_gamma    90

_symmetry_space_group_name_H-M    "P 1"
_symmetry_int_tables_number       1

loop_
  _symmetry_equiv_pos_as_xyz
  'x, y, z'

loop_
  _atom_site_label
  _atom_site_occupancy
  _atom_site_fract_x
  _atom_site_fract_y
  _atom_site_fract_z
  _atom_site_thermal_displace_type
  _atom_site_B_iso_or_equiv
  _atom_site_type_symbol
  O1       1.0000 0.38233  0.38233  0.50000  Biso   1.000  O
  O2       1.0000 0.61767  0.61767  0.50000  Biso   1.000  O
  O3       1.0000 0.11767  0.88233  0.50000  Biso   1.000  O
  O4       1.0000 0.88233  0.11767  0.50000  Biso   1.000  O
  O5       1.0000 0.11767  0.11767  0.50000  Biso   1.000  O
  O6       1.0000 0.88233  0.88233  0.50000  Biso   1.000  O
  O7       1.0000 0.38233  0.61767  0.50000  Biso   1.000  O
  O8       1.0000 0.61767  0.38233  0.50000  Biso   1.000  O
  O9       1.0000 0.00000  0.16915  0.61698  Biso   1.000  O
  O10      1.0000 0.00000  0.83085  0.61698  Biso   1.000  O
  O11      1.0000 0.33085  0.50000  0.61698  Biso   1.000  O
  O12      1.0000 0.66915  0.50000  0.61698  Biso   1.000  O
  O13      1.0000 0.50000  0.66915  0.38302  Biso   1.000  O
  O14      1.0000 0.50000  0.33085  0.38302  Biso   1.000  O
  O15      1.0000 0.16915  0.00000  0.38302  Biso   1.000  O
  O16      1.0000 0.83085  0.00000  0.38302  Biso   1.000  O
  O17      1.0000 0.12707  0.62707  0.33867  Biso   1.000  O
  O18      1.0000 0.87293  0.37294  0.33867  Biso   1.000  O
  O19      1.0000 0.87293  0.62707  0.33867  Biso   1.000  O
  O20      1.0000 0.12707  0.37294  0.33867  Biso   1.000  O
  O21      1.0000 0.37294  0.12707  0.66133  Biso   1.000  O
  O22      1.0000 0.62707  0.87293  0.66133  Biso   1.000  O
  O23      1.0000 0.62707  0.12707  0.66133  Biso   1.000  O
  O24      1.0000 0.37294  0.87293  0.66133  Biso   1.000  O
  O25      1.0000 0.24035  0.59359  0.49617  Biso   1.000  O
  O26      1.0000 0.75965  0.40641  0.49617  Biso   1.000  O
  O27      1.0000 0.90641  0.74035  0.49617  Biso   1.000  O
  O28      1.0000 0.09359  0.25965  0.49617  Biso   1.000  O
  O29      1.0000 0.25965  0.09359  0.50383  Biso   1.000  O
  O30      1.0000 0.74035  0.90641  0.50383  Biso   1.000  O
  O31      1.0000 0.59359  0.24035  0.50383  Biso   1.000  O
  O32      1.0000 0.40641  0.75965  0.50383  Biso   1.000  O
  O33      1.0000 0.25965  0.90641  0.50383  Biso   1.000  O
  O34      1.0000 0.74035  0.09359  0.50383  Biso   1.000  O
  O35      1.0000 0.59359  0.75965  0.50383  Biso   1.000  O
  O36      1.0000 0.40641  0.24035  0.50383  Biso   1.000  O
  O37      1.0000 0.24035  0.40641  0.49617  Biso   1.000  O
  O38      1.0000 0.75965  0.59359  0.49617  Biso   1.000  O
  O39      1.0000 0.90641  0.25965  0.49617  Biso   1.000  O
  O40      1.0000 0.09359  0.74035  0.49617  Biso   1.000  O
  O41      1.0000 0.00000  0.31215  0.30528  Biso   1.000  O
  O42      1.0000 0.00000  0.68785  0.30528  Biso   1.000  O
  O43      1.0000 0.18785  0.50000  0.30528  Biso   1.000  O
  O44      1.0000 0.81215  0.50000  0.30528  Biso   1.000  O
  O45      1.0000 0.50000  0.81215  0.69472  Biso   1.000  O
  O46      1.0000 0.50000  0.18785  0.69472  Biso   1.000  O
  O47      1.0000 0.31215  0.00000  0.69472  Biso   1.000  O
  O48      1.0000 0.68785  0.00000  0.69472  Biso   1.000  O
  O49      1.0000 0.16963  0.16963  0.00000  Biso   1.000  O
  O50      1.0000 0.83037  0.83037  0.00000  Biso   1.000  O
  O51      1.0000 0.33037  0.66963  0.00000  Biso   1.000  O
  O52      1.0000 0.66963  0.33037  0.00000  Biso   1.000  O
  O53      1.0000 0.33037  0.33037  0.00000  Biso   1.000  O
  O54      1.0000 0.66963  0.66963  0.00000  Biso   1.000  O
  O55      1.0000 0.16963  0.83037  0.00000  Biso   1.000  O
  O56      1.0000 0.83037  0.16963  0.00000  Biso   1.000  O
  O57      1.0000 0.24322  0.11600  0.78338  Biso   1.000  O
  O58      1.0000 0.75678  0.88400  0.78338  Biso   1.000  O
  O59      1.0000 0.38400  0.74322  0.78338  Biso   1.000  O
  O60      1.0000 0.61600  0.25678  0.78338  Biso   1.000  O
  O61      1.0000 0.25678  0.61600  0.21662  Biso   1.000  O
  O62      1.0000 0.74322  0.38400  0.21662  Biso   1.000  O
  O63      1.0000 0.11600  0.24322  0.21662  Biso   1.000  O
  O64      1.0000 0.88400  0.75678  0.21662  Biso   1.000  O
  O65      1.0000 0.25678  0.38400  0.21662  Biso   1.000  O
  O66      1.0000 0.74322  0.61600  0.21662  Biso   1.000  O
  O67      1.0000 0.11600  0.75678  0.21662  Biso   1.000  O
  O68      1.0000 0.88400  0.24322  0.21662  Biso   1.000  O
  O69      1.0000 0.24322  0.88400  0.78338  Biso   1.000  O
  O70      1.0000 0.75678  0.11600  0.78338  Biso   1.000  O
  O71      1.0000 0.38400  0.25678  0.78338  Biso   1.000  O
  O72      1.0000 0.61600  0.74322  0.78338  Biso   1.000  O
  O73      1.0000 0.12443  0.19450  0.73911  Biso   1.000  O
  O74      1.0000 0.87557  0.80550  0.73911  Biso   1.000  O
  O75      1.0000 0.30550  0.62443  0.73911  Biso   1.000  O
  O76      1.0000 0.69450  0.37557  0.73911  Biso   1.000  O
  O77      1.0000 0.37557  0.69450  0.26089  Biso   1.000  O
  O78      1.0000 0.62443  0.30550  0.26089  Biso   1.000  O
  O79      1.0000 0.19450  0.12443  0.26089  Biso   1.000  O
  O80      1.0000 0.80550  0.87557  0.26089  Biso   1.000  O
  O81      1.0000 0.37557  0.30550  0.26089  Biso   1.000  O
  O82      1.0000 0.62443  0.69450  0.26089  Biso   1.000  O
  O83      1.0000 0.19450  0.87557  0.26089  Biso   1.000  O
  O84      1.0000 0.80550  0.12443  0.26089  Biso   1.000  O
  O85      1.0000 0.12443  0.80550  0.73911  Biso   1.000  O
  O86      1.0000 0.87557  0.19450  0.73911  Biso   1.000  O
  O87      1.0000 0.30550  0.37557  0.73911  Biso   1.000  O
  O88      1.0000 0.69450  0.62443  0.73911  Biso   1.000  O
  O89      1.0000 0.75813  0.25813  0.82841  Biso   1.000  O
  O90      1.0000 0.24187  0.74187  0.82841  Biso   1.000  O
  O91      1.0000 0.24187  0.25813  0.82841  Biso   1.000  O
  O92      1.0000 0.75813  0.74187  0.82841  Biso   1.000  O
  O93      1.0000 0.74187  0.75813  0.17159  Biso   1.000  O
  O94      1.0000 0.25813  0.24187  0.17159  Biso   1.000  O
  O95      1.0000 0.25813  0.75813  0.17159  Biso   1.000  O
  O96      1.0000 0.74187  0.24187  0.17159  Biso   1.000  O
  Ir1      1.0000 0.31575  0.30471  0.83726  Biso   1.000  Ir
  Ir2      1.0000 0.68425  0.69529  0.83726  Biso   1.000  Ir
  Ir3      1.0000 0.19529  0.81575  0.83726  Biso   1.000  Ir
  Ir4      1.0000 0.80471  0.18425  0.83726  Biso   1.000  Ir
  Ir5      1.0000 0.18425  0.80471  0.16274  Biso   1.000  Ir
  Ir6      1.0000 0.81575  0.19529  0.16274  Biso   1.000  Ir
  Ir7      1.0000 0.30471  0.31575  0.16274  Biso   1.000  Ir
  Ir8      1.0000 0.69529  0.68425  0.16274  Biso   1.000  Ir
  Ir9      1.0000 0.18425  0.19529  0.16274  Biso   1.000  Ir
  Ir10     1.0000 0.81575  0.80471  0.16274  Biso   1.000  Ir
  Ir11     1.0000 0.30471  0.68425  0.16274  Biso   1.000  Ir
  Ir12     1.0000 0.69529  0.31575  0.16274  Biso   1.000  Ir
  Ir13     1.0000 0.31575  0.69529  0.83726  Biso   1.000  Ir
  Ir14     1.0000 0.68425  0.30471  0.83726  Biso   1.000  Ir
  Ir15     1.0000 0.19529  0.18425  0.83726  Biso   1.000  Ir
  Ir16     1.0000 0.80471  0.81575  0.83726  Biso   1.000  Ir
  Ir17     1.0000 0.20328  0.41576  0.33945  Biso   1.000  Ir
  Ir18     1.0000 0.79672  0.58424  0.33945  Biso   1.000  Ir
  Ir19     1.0000 0.08424  0.70328  0.33945  Biso   1.000  Ir
  Ir20     1.0000 0.91576  0.29672  0.33945  Biso   1.000  Ir
  Ir21     1.0000 0.29672  0.91576  0.66055  Biso   1.000  Ir
  Ir22     1.0000 0.70328  0.08424  0.66055  Biso   1.000  Ir
  Ir23     1.0000 0.41576  0.20328  0.66055  Biso   1.000  Ir
  Ir24     1.0000 0.58424  0.79672  0.66055  Biso   1.000  Ir
  Ir25     1.0000 0.29672  0.08424  0.66055  Biso   1.000  Ir
  Ir26     1.0000 0.70328  0.91576  0.66055  Biso   1.000  Ir
  Ir27     1.0000 0.41576  0.79672  0.66055  Biso   1.000  Ir
  Ir28     1.0000 0.58424  0.20328  0.66055  Biso   1.000  Ir
  Ir29     1.0000 0.20328  0.58424  0.33945  Biso   1.000  Ir
  Ir30     1.0000 0.79672  0.41576  0.33945  Biso   1.000  Ir
  Ir31     1.0000 0.08424  0.29672  0.33945  Biso   1.000  Ir
  Ir32     1.0000 0.91576  0.70328  0.33945  Biso   1.000  Ir
  Ir33     1.0000 0.31460  0.58411  0.58728  Biso   1.000  Ir
  Ir34     1.0000 0.68540  0.41589  0.58728  Biso   1.000  Ir
  Ir35     1.0000 0.91589  0.81460  0.58728  Biso   1.000  Ir
  Ir36     1.0000 0.08411  0.18540  0.58728  Biso   1.000  Ir
  Ir37     1.0000 0.18540  0.08411  0.41272  Biso   1.000  Ir
  Ir38     1.0000 0.81460  0.91589  0.41272  Biso   1.000  Ir
  Ir39     1.0000 0.58411  0.31460  0.41272  Biso   1.000  Ir
  Ir40     1.0000 0.41589  0.68540  0.41272  Biso   1.000  Ir
  Ir41     1.0000 0.18540  0.91589  0.41272  Biso   1.000  Ir
  Ir42     1.0000 0.81460  0.08411  0.41272  Biso   1.000  Ir
  Ir43     1.0000 0.58411  0.68540  0.41272  Biso   1.000  Ir
  Ir44     1.0000 0.41589  0.31460  0.41272  Biso   1.000  Ir
  Ir45     1.0000 0.31460  0.41589  0.58728  Biso   1.000  Ir
  Ir46     1.0000 0.68540  0.58411  0.58728  Biso   1.000  Ir
  Ir47     1.0000 0.91589  0.18540  0.58728  Biso   1.000  Ir
  Ir48     1.0000 0.08411  0.81460  0.58728  Biso   1.000  Ir
