data_image0
_cell_length_a       8.72824
_cell_length_b       8.72824
_cell_length_c       51.1713
_cell_angle_alpha    90
_cell_angle_beta     90
_cell_angle_gamma    90

_symmetry_space_group_name_H-M    "P 1"
_symmetry_int_tables_number       1

loop_
  _symmetry_equiv_pos_as_xyz
  'x, y, z'

loop_
  _atom_site_label
  _atom_site_occupancy
  _atom_site_fract_x
  _atom_site_fract_y
  _atom_site_fract_z
  _atom_site_thermal_displace_type
  _atom_site_B_iso_or_equiv
  _atom_site_type_symbol
  O1       1.0000 0.50000  0.68475  0.47768  Biso   1.000  O
  O2       1.0000 0.50000  0.31525  0.47768  Biso   1.000  O
  O3       1.0000 0.81525  0.50000  0.22768  Biso   1.000  O
  O4       1.0000 0.18475  0.50000  0.22768  Biso   1.000  O
  O5       1.0000 0.00000  0.68475  0.27232  Biso   1.000  O
  O6       1.0000 0.00000  0.31525  0.27232  Biso   1.000  O
  O7       1.0000 0.18475  0.00000  0.02232  Biso   1.000  O
  O8       1.0000 0.81525  0.00000  0.02232  Biso   1.000  O
  O9       1.0000 0.68388  0.31430  0.17820  Biso   1.000  O
  O10      1.0000 0.31612  0.68570  0.17820  Biso   1.000  O
  O11      1.0000 0.68570  0.18388  0.42820  Biso   1.000  O
  O12      1.0000 0.31430  0.81612  0.42820  Biso   1.000  O
  O13      1.0000 0.31612  0.81430  0.07180  Biso   1.000  O
  O14      1.0000 0.68388  0.18570  0.07180  Biso   1.000  O
  O15      1.0000 0.81430  0.18388  0.32180  Biso   1.000  O
  O16      1.0000 0.18570  0.81612  0.32180  Biso   1.000  O
  O17      1.0000 0.31612  0.18570  0.07180  Biso   1.000  O
  O18      1.0000 0.68388  0.81430  0.07180  Biso   1.000  O
  O19      1.0000 0.81430  0.81612  0.32180  Biso   1.000  O
  O20      1.0000 0.18570  0.18388  0.32180  Biso   1.000  O
  O21      1.0000 0.68388  0.68570  0.17820  Biso   1.000  O
  O22      1.0000 0.31612  0.31430  0.17820  Biso   1.000  O
  O23      1.0000 0.68570  0.81612  0.42820  Biso   1.000  O
  O24      1.0000 0.31430  0.18388  0.42820  Biso   1.000  O
  O25      1.0000 0.50000  0.50000  0.42339  Biso   1.000  O
  O26      1.0000 0.00000  0.50000  0.17339  Biso   1.000  O
  O27      1.0000 0.00000  0.50000  0.32661  Biso   1.000  O
  O28      1.0000 0.00000  0.00000  0.07661  Biso   1.000  O
  O29      1.0000 0.50000  0.50000  0.07870  Biso   1.000  O
  O30      1.0000 0.50000  0.00000  0.32870  Biso   1.000  O
  O31      1.0000 0.50000  0.00000  0.17130  Biso   1.000  O
  O32      1.0000 0.00000  0.00000  0.42130  Biso   1.000  O
  O33      1.0000 0.50000  0.75000  0.12500  Biso   1.000  O
  O34      1.0000 0.50000  0.25000  0.12500  Biso   1.000  O
  O35      1.0000 0.25000  0.00000  0.37500  Biso   1.000  O
  O36      1.0000 0.75000  0.00000  0.37500  Biso   1.000  O
  O37      1.0000 0.00000  0.18475  0.97768  Biso   1.000  O
  O38      1.0000 0.00000  0.81525  0.97768  Biso   1.000  O
  O39      1.0000 0.31525  0.00000  0.72768  Biso   1.000  O
  O40      1.0000 0.68475  0.00000  0.72768  Biso   1.000  O
  O41      1.0000 0.50000  0.18475  0.77232  Biso   1.000  O
  O42      1.0000 0.50000  0.81525  0.77232  Biso   1.000  O
  O43      1.0000 0.68475  0.50000  0.52232  Biso   1.000  O
  O44      1.0000 0.31525  0.50000  0.52232  Biso   1.000  O
  O45      1.0000 0.18388  0.81430  0.67820  Biso   1.000  O
  O46      1.0000 0.81612  0.18570  0.67820  Biso   1.000  O
  O47      1.0000 0.18570  0.68388  0.92820  Biso   1.000  O
  O48      1.0000 0.81430  0.31612  0.92820  Biso   1.000  O
  O49      1.0000 0.81612  0.31430  0.57180  Biso   1.000  O
  O50      1.0000 0.18388  0.68570  0.57180  Biso   1.000  O
  O51      1.0000 0.31430  0.68388  0.82180  Biso   1.000  O
  O52      1.0000 0.68570  0.31612  0.82180  Biso   1.000  O
  O53      1.0000 0.81612  0.68570  0.57180  Biso   1.000  O
  O54      1.0000 0.18388  0.31430  0.57180  Biso   1.000  O
  O55      1.0000 0.31430  0.31612  0.82180  Biso   1.000  O
  O56      1.0000 0.68570  0.68388  0.82180  Biso   1.000  O
  O57      1.0000 0.18388  0.18570  0.67820  Biso   1.000  O
  O58      1.0000 0.81612  0.81430  0.67820  Biso   1.000  O
  O59      1.0000 0.18570  0.31612  0.92820  Biso   1.000  O
  O60      1.0000 0.81430  0.68388  0.92820  Biso   1.000  O
  O61      1.0000 0.00000  0.00000  0.92339  Biso   1.000  O
  O62      1.0000 0.50000  0.00000  0.67339  Biso   1.000  O
  O63      1.0000 0.50000  0.00000  0.82661  Biso   1.000  O
  O64      1.0000 0.50000  0.50000  0.57661  Biso   1.000  O
  O65      1.0000 0.00000  0.00000  0.57870  Biso   1.000  O
  O66      1.0000 0.00000  0.50000  0.82870  Biso   1.000  O
  O67      1.0000 0.00000  0.50000  0.67130  Biso   1.000  O
  O68      1.0000 0.50000  0.50000  0.92130  Biso   1.000  O
  O69      1.0000 0.00000  0.25000  0.62500  Biso   1.000  O
  O70      1.0000 0.00000  0.75000  0.62500  Biso   1.000  O
  O71      1.0000 0.75000  0.50000  0.87500  Biso   1.000  O
  O72      1.0000 0.25000  0.50000  0.87500  Biso   1.000  O
  Ir1      1.0000 0.50000  0.70694  0.43912  Biso   1.000  Ir
  Ir2      1.0000 0.50000  0.29306  0.43912  Biso   1.000  Ir
  Ir3      1.0000 0.79306  0.50000  0.18912  Biso   1.000  Ir
  Ir4      1.0000 0.20694  0.50000  0.18912  Biso   1.000  Ir
  Ir5      1.0000 0.00000  0.70694  0.31088  Biso   1.000  Ir
  Ir6      1.0000 0.00000  0.29306  0.31088  Biso   1.000  Ir
  Ir7      1.0000 0.20694  0.00000  0.06088  Biso   1.000  Ir
  Ir8      1.0000 0.79306  0.00000  0.06088  Biso   1.000  Ir
  Ir9      1.0000 0.50000  0.71903  0.08703  Biso   1.000  Ir
  Ir10     1.0000 0.50000  0.28098  0.08703  Biso   1.000  Ir
  Ir11     1.0000 0.28098  0.00000  0.33703  Biso   1.000  Ir
  Ir12     1.0000 0.71903  0.00000  0.33703  Biso   1.000  Ir
  Ir13     1.0000 0.50000  0.21903  0.16297  Biso   1.000  Ir
  Ir14     1.0000 0.50000  0.78098  0.16297  Biso   1.000  Ir
  Ir15     1.0000 0.21903  0.00000  0.41297  Biso   1.000  Ir
  Ir16     1.0000 0.78098  0.00000  0.41297  Biso   1.000  Ir
  Ir17     1.0000 0.00000  0.00000  0.00000  Biso   1.000  Ir
  Ir18     1.0000 0.00000  0.50000  0.25000  Biso   1.000  Ir
  Ir19     1.0000 0.00000  0.20694  0.93912  Biso   1.000  Ir
  Ir20     1.0000 0.00000  0.79306  0.93912  Biso   1.000  Ir
  Ir21     1.0000 0.29306  0.00000  0.68912  Biso   1.000  Ir
  Ir22     1.0000 0.70694  0.00000  0.68912  Biso   1.000  Ir
  Ir23     1.0000 0.50000  0.20694  0.81088  Biso   1.000  Ir
  Ir24     1.0000 0.50000  0.79306  0.81088  Biso   1.000  Ir
  Ir25     1.0000 0.70694  0.50000  0.56088  Biso   1.000  Ir
  Ir26     1.0000 0.29306  0.50000  0.56088  Biso   1.000  Ir
  Ir27     1.0000 0.00000  0.21903  0.58703  Biso   1.000  Ir
  Ir28     1.0000 0.00000  0.78098  0.58703  Biso   1.000  Ir
  Ir29     1.0000 0.78098  0.50000  0.83703  Biso   1.000  Ir
  Ir30     1.0000 0.21903  0.50000  0.83703  Biso   1.000  Ir
  Ir31     1.0000 0.00000  0.71903  0.66297  Biso   1.000  Ir
  Ir32     1.0000 0.00000  0.28098  0.66297  Biso   1.000  Ir
  Ir33     1.0000 0.71903  0.50000  0.91297  Biso   1.000  Ir
  Ir34     1.0000 0.28098  0.50000  0.91297  Biso   1.000  Ir
  Ir35     1.0000 0.50000  0.50000  0.50000  Biso   1.000  Ir
  Ir36     1.0000 0.50000  0.00000  0.75000  Biso   1.000  Ir
