data_image0
_cell_length_a       6.03341
_cell_length_b       10.2462
_cell_length_c       6.27685
_cell_angle_alpha    90
_cell_angle_beta     113.789
_cell_angle_gamma    90

_symmetry_space_group_name_H-M    "P 1"
_symmetry_int_tables_number       1

loop_
  _symmetry_equiv_pos_as_xyz
  'x, y, z'

loop_
  _atom_site_label
  _atom_site_occupancy
  _atom_site_fract_x
  _atom_site_fract_y
  _atom_site_fract_z
  _atom_site_thermal_displace_type
  _atom_site_B_iso_or_equiv
  _atom_site_type_symbol
  O1       1.0000 0.59033  0.97337  0.06120  Biso   1.000  O
  O2       1.0000 0.40967  0.47337  0.93880  Biso   1.000  O
  O3       1.0000 0.58550  0.98776  0.55920  Biso   1.000  O
  O4       1.0000 0.41450  0.48776  0.44080  Biso   1.000  O
  O5       1.0000 0.91268  0.53485  0.43637  Biso   1.000  O
  O6       1.0000 0.08732  0.03485  0.56363  Biso   1.000  O
  O7       1.0000 0.33248  0.74888  0.66645  Biso   1.000  O
  O8       1.0000 0.66752  0.24888  0.33355  Biso   1.000  O
  Ir1      1.0000 0.73008  0.06118  0.37765  Biso   1.000  Ir
  Ir2      1.0000 0.26992  0.56118  0.62236  Biso   1.000  Ir
  Ir3      1.0000 0.39657  0.93646  0.71090  Biso   1.000  Ir
  Ir4      1.0000 0.60343  0.43646  0.28910  Biso   1.000  Ir
