data_image0
_cell_length_a       17.0782
_cell_length_b       17.0782
_cell_length_c       12.1518
_cell_angle_alpha    90
_cell_angle_beta     90
_cell_angle_gamma    90

_symmetry_space_group_name_H-M    "P 1"
_symmetry_int_tables_number       1

loop_
  _symmetry_equiv_pos_as_xyz
  'x, y, z'

loop_
  _atom_site_label
  _atom_site_occupancy
  _atom_site_fract_x
  _atom_site_fract_y
  _atom_site_fract_z
  _atom_site_thermal_displace_type
  _atom_site_B_iso_or_equiv
  _atom_site_type_symbol
  O1       1.0000 0.32824  0.32824  0.31512  Biso   1.000  O
  O2       1.0000 0.17176  0.17176  0.81512  Biso   1.000  O
  O3       1.0000 0.67176  0.32824  0.31512  Biso   1.000  O
  O4       1.0000 0.82824  0.17176  0.81512  Biso   1.000  O
  O5       1.0000 0.67176  0.32824  0.68488  Biso   1.000  O
  O6       1.0000 0.82824  0.17176  0.18488  Biso   1.000  O
  O7       1.0000 0.32824  0.32824  0.68488  Biso   1.000  O
  O8       1.0000 0.17176  0.17176  0.18488  Biso   1.000  O
  O9       1.0000 0.20124  0.37729  0.50000  Biso   1.000  O
  O10      1.0000 0.79876  0.62271  0.50000  Biso   1.000  O
  O11      1.0000 0.12271  0.70124  0.00000  Biso   1.000  O
  O12      1.0000 0.87729  0.29876  0.00000  Biso   1.000  O
  O13      1.0000 0.79876  0.37729  0.50000  Biso   1.000  O
  O14      1.0000 0.20124  0.62271  0.50000  Biso   1.000  O
  O15      1.0000 0.87729  0.70124  0.00000  Biso   1.000  O
  O16      1.0000 0.12271  0.29876  0.00000  Biso   1.000  O
  O17      1.0000 0.00000  0.24511  0.81242  Biso   1.000  O
  O18      1.0000 0.00000  0.75489  0.81242  Biso   1.000  O
  O19      1.0000 0.25489  0.50000  0.31242  Biso   1.000  O
  O20      1.0000 0.74511  0.50000  0.31242  Biso   1.000  O
  O21      1.0000 0.00000  0.24511  0.18758  Biso   1.000  O
  O22      1.0000 0.00000  0.75489  0.18758  Biso   1.000  O
  O23      1.0000 0.74511  0.50000  0.68758  Biso   1.000  O
  O24      1.0000 0.25489  0.50000  0.68758  Biso   1.000  O
  O25      1.0000 0.85306  0.35306  0.75000  Biso   1.000  O
  O26      1.0000 0.14694  0.64694  0.75000  Biso   1.000  O
  O27      1.0000 0.14694  0.35306  0.25000  Biso   1.000  O
  O28      1.0000 0.85306  0.64694  0.25000  Biso   1.000  O
  O29      1.0000 0.14694  0.64694  0.25000  Biso   1.000  O
  O30      1.0000 0.85306  0.35306  0.25000  Biso   1.000  O
  O31      1.0000 0.85306  0.64694  0.75000  Biso   1.000  O
  O32      1.0000 0.14694  0.35306  0.75000  Biso   1.000  O
  O33      1.0000 0.82824  0.82824  0.81512  Biso   1.000  O
  O34      1.0000 0.67176  0.67176  0.31512  Biso   1.000  O
  O35      1.0000 0.17176  0.82824  0.81512  Biso   1.000  O
  O36      1.0000 0.32824  0.67176  0.31512  Biso   1.000  O
  O37      1.0000 0.17176  0.82824  0.18488  Biso   1.000  O
  O38      1.0000 0.32824  0.67176  0.68488  Biso   1.000  O
  O39      1.0000 0.82824  0.82824  0.18488  Biso   1.000  O
  O40      1.0000 0.67176  0.67176  0.68488  Biso   1.000  O
  O41      1.0000 0.70124  0.87729  0.00000  Biso   1.000  O
  O42      1.0000 0.29876  0.12271  0.00000  Biso   1.000  O
  O43      1.0000 0.62271  0.20124  0.50000  Biso   1.000  O
  O44      1.0000 0.37729  0.79876  0.50000  Biso   1.000  O
  O45      1.0000 0.29876  0.87729  0.00000  Biso   1.000  O
  O46      1.0000 0.70124  0.12271  0.00000  Biso   1.000  O
  O47      1.0000 0.37729  0.20124  0.50000  Biso   1.000  O
  O48      1.0000 0.62271  0.79876  0.50000  Biso   1.000  O
  O49      1.0000 0.50000  0.74511  0.31242  Biso   1.000  O
  O50      1.0000 0.50000  0.25489  0.31242  Biso   1.000  O
  O51      1.0000 0.75489  0.00000  0.81242  Biso   1.000  O
  O52      1.0000 0.24511  0.00000  0.81242  Biso   1.000  O
  O53      1.0000 0.50000  0.74511  0.68758  Biso   1.000  O
  O54      1.0000 0.50000  0.25489  0.68758  Biso   1.000  O
  O55      1.0000 0.24511  0.00000  0.18758  Biso   1.000  O
  O56      1.0000 0.75489  0.00000  0.18758  Biso   1.000  O
  O57      1.0000 0.35306  0.85306  0.25000  Biso   1.000  O
  O58      1.0000 0.64694  0.14694  0.25000  Biso   1.000  O
  O59      1.0000 0.64694  0.85306  0.75000  Biso   1.000  O
  O60      1.0000 0.35306  0.14694  0.75000  Biso   1.000  O
  O61      1.0000 0.64694  0.14694  0.75000  Biso   1.000  O
  O62      1.0000 0.35306  0.85306  0.75000  Biso   1.000  O
  O63      1.0000 0.35306  0.14694  0.25000  Biso   1.000  O
  O64      1.0000 0.64694  0.85306  0.25000  Biso   1.000  O
  Ir1      1.0000 0.23282  0.38953  0.34471  Biso   1.000  Ir
  Ir2      1.0000 0.76718  0.61047  0.34471  Biso   1.000  Ir
  Ir3      1.0000 0.11047  0.73282  0.84471  Biso   1.000  Ir
  Ir4      1.0000 0.88953  0.26718  0.84471  Biso   1.000  Ir
  Ir5      1.0000 0.76718  0.38953  0.65529  Biso   1.000  Ir
  Ir6      1.0000 0.23282  0.61047  0.65529  Biso   1.000  Ir
  Ir7      1.0000 0.88953  0.73282  0.15529  Biso   1.000  Ir
  Ir8      1.0000 0.11047  0.26718  0.15529  Biso   1.000  Ir
  Ir9      1.0000 0.76718  0.61047  0.65529  Biso   1.000  Ir
  Ir10     1.0000 0.23282  0.38953  0.65529  Biso   1.000  Ir
  Ir11     1.0000 0.88953  0.26718  0.15529  Biso   1.000  Ir
  Ir12     1.0000 0.11047  0.73282  0.15529  Biso   1.000  Ir
  Ir13     1.0000 0.23282  0.61047  0.34471  Biso   1.000  Ir
  Ir14     1.0000 0.76718  0.38953  0.34471  Biso   1.000  Ir
  Ir15     1.0000 0.11047  0.26718  0.84471  Biso   1.000  Ir
  Ir16     1.0000 0.88953  0.73282  0.84471  Biso   1.000  Ir
  Ir17     1.0000 0.73282  0.88953  0.84471  Biso   1.000  Ir
  Ir18     1.0000 0.26718  0.11047  0.84471  Biso   1.000  Ir
  Ir19     1.0000 0.61047  0.23282  0.34471  Biso   1.000  Ir
  Ir20     1.0000 0.38953  0.76718  0.34471  Biso   1.000  Ir
  Ir21     1.0000 0.26718  0.88953  0.15529  Biso   1.000  Ir
  Ir22     1.0000 0.73282  0.11047  0.15529  Biso   1.000  Ir
  Ir23     1.0000 0.38953  0.23282  0.65529  Biso   1.000  Ir
  Ir24     1.0000 0.61047  0.76718  0.65529  Biso   1.000  Ir
  Ir25     1.0000 0.26718  0.11047  0.15529  Biso   1.000  Ir
  Ir26     1.0000 0.73282  0.88953  0.15529  Biso   1.000  Ir
  Ir27     1.0000 0.38953  0.76718  0.65529  Biso   1.000  Ir
  Ir28     1.0000 0.61047  0.23282  0.65529  Biso   1.000  Ir
  Ir29     1.0000 0.73282  0.11047  0.84471  Biso   1.000  Ir
  Ir30     1.0000 0.26718  0.88953  0.84471  Biso   1.000  Ir
  Ir31     1.0000 0.61047  0.76718  0.34471  Biso   1.000  Ir
  Ir32     1.0000 0.38953  0.23282  0.34471  Biso   1.000  Ir
