data_image0
_cell_length_a       15.1494
_cell_length_b       35.1572
_cell_length_c       10.2094
_cell_angle_alpha    90
_cell_angle_beta     90
_cell_angle_gamma    90

_symmetry_space_group_name_H-M    "P 1"
_symmetry_int_tables_number       1

loop_
  _symmetry_equiv_pos_as_xyz
  'x, y, z'

loop_
  _atom_site_label
  _atom_site_occupancy
  _atom_site_fract_x
  _atom_site_fract_y
  _atom_site_fract_z
  _atom_site_thermal_displace_type
  _atom_site_B_iso_or_equiv
  _atom_site_type_symbol
  O1       1.0000 0.63078  0.56481  0.25000  Biso   1.000  O
  O2       1.0000 0.36922  0.43519  0.75000  Biso   1.000  O
  O3       1.0000 0.36922  0.06481  0.25000  Biso   1.000  O
  O4       1.0000 0.63078  0.93520  0.75000  Biso   1.000  O
  O5       1.0000 0.77099  0.57941  0.01715  Biso   1.000  O
  O6       1.0000 0.22901  0.42059  0.51714  Biso   1.000  O
  O7       1.0000 0.22901  0.07941  0.48285  Biso   1.000  O
  O8       1.0000 0.77099  0.92059  0.98286  Biso   1.000  O
  O9       1.0000 0.22901  0.42059  0.98286  Biso   1.000  O
  O10      1.0000 0.77099  0.57941  0.48285  Biso   1.000  O
  O11      1.0000 0.77099  0.92059  0.51714  Biso   1.000  O
  O12      1.0000 0.22901  0.07941  0.01715  Biso   1.000  O
  O13      1.0000 0.18387  0.25000  0.00000  Biso   1.000  O
  O14      1.0000 0.81613  0.75000  0.50000  Biso   1.000  O
  O15      1.0000 0.81613  0.75000  0.00000  Biso   1.000  O
  O16      1.0000 0.18387  0.25000  0.50000  Biso   1.000  O
  O17      1.0000 0.59010  0.40131  0.25000  Biso   1.000  O
  O18      1.0000 0.40990  0.59869  0.75000  Biso   1.000  O
  O19      1.0000 0.40990  0.90131  0.25000  Biso   1.000  O
  O20      1.0000 0.59010  0.09869  0.75000  Biso   1.000  O
  O21      1.0000 0.33798  0.31215  0.53851  Biso   1.000  O
  O22      1.0000 0.66202  0.68785  0.03851  Biso   1.000  O
  O23      1.0000 0.66202  0.81215  0.96149  Biso   1.000  O
  O24      1.0000 0.33798  0.18785  0.46149  Biso   1.000  O
  O25      1.0000 0.66202  0.68785  0.46149  Biso   1.000  O
  O26      1.0000 0.33798  0.31215  0.96149  Biso   1.000  O
  O27      1.0000 0.33798  0.18785  0.03851  Biso   1.000  O
  O28      1.0000 0.66202  0.81215  0.53851  Biso   1.000  O
  O29      1.0000 0.17061  0.94626  0.01790  Biso   1.000  O
  O30      1.0000 0.82939  0.05374  0.51790  Biso   1.000  O
  O31      1.0000 0.82939  0.44626  0.48210  Biso   1.000  O
  O32      1.0000 0.17061  0.55374  0.98210  Biso   1.000  O
  O33      1.0000 0.82939  0.05374  0.98210  Biso   1.000  O
  O34      1.0000 0.17061  0.94626  0.48210  Biso   1.000  O
  O35      1.0000 0.17061  0.55374  0.51790  Biso   1.000  O
  O36      1.0000 0.82939  0.44626  0.01790  Biso   1.000  O
  O37      1.0000 0.85696  0.83871  0.04339  Biso   1.000  O
  O38      1.0000 0.14304  0.16130  0.54339  Biso   1.000  O
  O39      1.0000 0.14304  0.33870  0.45661  Biso   1.000  O
  O40      1.0000 0.85696  0.66129  0.95661  Biso   1.000  O
  O41      1.0000 0.14304  0.16130  0.95661  Biso   1.000  O
  O42      1.0000 0.85696  0.83871  0.45661  Biso   1.000  O
  O43      1.0000 0.85696  0.66129  0.54339  Biso   1.000  O
  O44      1.0000 0.14304  0.33870  0.04339  Biso   1.000  O
  O45      1.0000 0.33957  0.49832  0.97318  Biso   1.000  O
  O46      1.0000 0.66043  0.50168  0.47318  Biso   1.000  O
  O47      1.0000 0.66043  0.99832  0.52682  Biso   1.000  O
  O48      1.0000 0.33957  0.00168  0.02682  Biso   1.000  O
  O49      1.0000 0.66043  0.50168  0.02682  Biso   1.000  O
  O50      1.0000 0.33957  0.49832  0.52682  Biso   1.000  O
  O51      1.0000 0.33957  0.00168  0.47318  Biso   1.000  O
  O52      1.0000 0.66043  0.99832  0.97318  Biso   1.000  O
  O53      1.0000 0.53481  0.33856  0.03660  Biso   1.000  O
  O54      1.0000 0.46519  0.66144  0.53660  Biso   1.000  O
  O55      1.0000 0.46519  0.83856  0.46340  Biso   1.000  O
  O56      1.0000 0.53481  0.16144  0.96340  Biso   1.000  O
  O57      1.0000 0.46519  0.66144  0.96340  Biso   1.000  O
  O58      1.0000 0.53481  0.33856  0.46340  Biso   1.000  O
  O59      1.0000 0.53481  0.16144  0.53660  Biso   1.000  O
  O60      1.0000 0.46519  0.83856  0.03660  Biso   1.000  O
  O61      1.0000 0.49299  0.25000  0.00000  Biso   1.000  O
  O62      1.0000 0.50701  0.75000  0.50000  Biso   1.000  O
  O63      1.0000 0.50701  0.75000  0.00000  Biso   1.000  O
  O64      1.0000 0.49299  0.25000  0.50000  Biso   1.000  O
  O65      1.0000 0.50575  0.69446  0.25000  Biso   1.000  O
  O66      1.0000 0.49425  0.30554  0.75000  Biso   1.000  O
  O67      1.0000 0.49425  0.19446  0.25000  Biso   1.000  O
  O68      1.0000 0.50575  0.80554  0.75000  Biso   1.000  O
  O69      1.0000 0.01900  0.09063  0.47083  Biso   1.000  O
  O70      1.0000 0.98100  0.90937  0.97083  Biso   1.000  O
  O71      1.0000 0.98100  0.59063  0.02917  Biso   1.000  O
  O72      1.0000 0.01900  0.40937  0.52917  Biso   1.000  O
  O73      1.0000 0.98100  0.90937  0.52917  Biso   1.000  O
  O74      1.0000 0.01900  0.09063  0.02917  Biso   1.000  O
  O75      1.0000 0.01900  0.40937  0.97083  Biso   1.000  O
  O76      1.0000 0.98100  0.59063  0.47083  Biso   1.000  O
  O77      1.0000 0.63802  0.41395  0.55343  Biso   1.000  O
  O78      1.0000 0.36198  0.58605  0.05343  Biso   1.000  O
  O79      1.0000 0.36198  0.91395  0.94657  Biso   1.000  O
  O80      1.0000 0.63802  0.08605  0.44657  Biso   1.000  O
  O81      1.0000 0.36198  0.58605  0.44657  Biso   1.000  O
  O82      1.0000 0.63802  0.41395  0.94657  Biso   1.000  O
  O83      1.0000 0.63802  0.08605  0.05343  Biso   1.000  O
  O84      1.0000 0.36198  0.91395  0.55343  Biso   1.000  O
  O85      1.0000 0.73458  0.02812  0.25000  Biso   1.000  O
  O86      1.0000 0.26542  0.97188  0.75000  Biso   1.000  O
  O87      1.0000 0.26542  0.52812  0.25000  Biso   1.000  O
  O88      1.0000 0.73458  0.47188  0.75000  Biso   1.000  O
  O89      1.0000 0.26534  0.29350  0.25000  Biso   1.000  O
  O90      1.0000 0.73466  0.70650  0.75000  Biso   1.000  O
  O91      1.0000 0.73466  0.79350  0.25000  Biso   1.000  O
  O92      1.0000 0.26534  0.20650  0.75000  Biso   1.000  O
  O93      1.0000 0.14158  0.12891  0.25000  Biso   1.000  O
  O94      1.0000 0.85842  0.87109  0.75000  Biso   1.000  O
  O95      1.0000 0.85842  0.62891  0.25000  Biso   1.000  O
  O96      1.0000 0.14158  0.37109  0.75000  Biso   1.000  O
  O97      1.0000 0.02821  0.94590  0.25000  Biso   1.000  O
  O98      1.0000 0.97179  0.05410  0.75000  Biso   1.000  O
  O99      1.0000 0.97179  0.44590  0.25000  Biso   1.000  O
  O100     1.0000 0.02821  0.55410  0.75000  Biso   1.000  O
  O101     1.0000 0.56399  0.92000  0.45664  Biso   1.000  O
  O102     1.0000 0.43601  0.08000  0.95664  Biso   1.000  O
  O103     1.0000 0.43601  0.42000  0.04336  Biso   1.000  O
  O104     1.0000 0.56399  0.58000  0.54336  Biso   1.000  O
  O105     1.0000 0.43601  0.08000  0.54336  Biso   1.000  O
  O106     1.0000 0.56399  0.92000  0.04336  Biso   1.000  O
  O107     1.0000 0.56399  0.58000  0.95664  Biso   1.000  O
  O108     1.0000 0.43601  0.42000  0.45664  Biso   1.000  O
  O109     1.0000 0.00000  0.00000  0.00000  Biso   1.000  O
  O110     1.0000 0.00000  0.00000  0.50000  Biso   1.000  O
  O111     1.0000 0.00000  0.50000  0.50000  Biso   1.000  O
  O112     1.0000 0.00000  0.50000  0.00000  Biso   1.000  O
  Ir1      1.0000 0.71618  0.04147  0.43496  Biso   1.000  Ir
  Ir2      1.0000 0.28382  0.95854  0.93496  Biso   1.000  Ir
  Ir3      1.0000 0.28382  0.54147  0.06504  Biso   1.000  Ir
  Ir4      1.0000 0.71618  0.45854  0.56504  Biso   1.000  Ir
  Ir5      1.0000 0.28382  0.95854  0.56504  Biso   1.000  Ir
  Ir6      1.0000 0.71618  0.04147  0.06504  Biso   1.000  Ir
  Ir7      1.0000 0.71618  0.45854  0.93496  Biso   1.000  Ir
  Ir8      1.0000 0.28382  0.54147  0.43496  Biso   1.000  Ir
  Ir9      1.0000 0.76755  0.70145  0.93575  Biso   1.000  Ir
  Ir10     1.0000 0.23245  0.29855  0.43575  Biso   1.000  Ir
  Ir11     1.0000 0.23245  0.20145  0.56425  Biso   1.000  Ir
  Ir12     1.0000 0.76755  0.79855  0.06425  Biso   1.000  Ir
  Ir13     1.0000 0.23245  0.29855  0.06425  Biso   1.000  Ir
  Ir14     1.0000 0.76755  0.70145  0.56425  Biso   1.000  Ir
  Ir15     1.0000 0.76755  0.79855  0.43575  Biso   1.000  Ir
  Ir16     1.0000 0.23245  0.20145  0.93575  Biso   1.000  Ir
  Ir17     1.0000 0.54950  0.39340  0.43140  Biso   1.000  Ir
  Ir18     1.0000 0.45051  0.60660  0.93140  Biso   1.000  Ir
  Ir19     1.0000 0.45051  0.89340  0.06860  Biso   1.000  Ir
  Ir20     1.0000 0.54950  0.10660  0.56860  Biso   1.000  Ir
  Ir21     1.0000 0.45051  0.60660  0.56860  Biso   1.000  Ir
  Ir22     1.0000 0.54950  0.39340  0.06860  Biso   1.000  Ir
  Ir23     1.0000 0.54950  0.10660  0.93140  Biso   1.000  Ir
  Ir24     1.0000 0.45051  0.89340  0.43140  Biso   1.000  Ir
  Ir25     1.0000 0.04495  0.54933  0.56016  Biso   1.000  Ir
  Ir26     1.0000 0.95505  0.45067  0.06016  Biso   1.000  Ir
  Ir27     1.0000 0.95505  0.04933  0.93984  Biso   1.000  Ir
  Ir28     1.0000 0.04495  0.95067  0.43984  Biso   1.000  Ir
  Ir29     1.0000 0.95505  0.45067  0.43984  Biso   1.000  Ir
  Ir30     1.0000 0.04495  0.54933  0.93984  Biso   1.000  Ir
  Ir31     1.0000 0.04495  0.95067  0.06016  Biso   1.000  Ir
  Ir32     1.0000 0.95505  0.04933  0.56016  Biso   1.000  Ir
  Ir33     1.0000 0.65638  0.55649  0.43695  Biso   1.000  Ir
  Ir34     1.0000 0.34363  0.44351  0.93695  Biso   1.000  Ir
  Ir35     1.0000 0.34363  0.05649  0.06305  Biso   1.000  Ir
  Ir36     1.0000 0.65638  0.94351  0.56305  Biso   1.000  Ir
  Ir37     1.0000 0.34363  0.44351  0.56305  Biso   1.000  Ir
  Ir38     1.0000 0.65638  0.55649  0.06305  Biso   1.000  Ir
  Ir39     1.0000 0.65638  0.94351  0.93695  Biso   1.000  Ir
  Ir40     1.0000 0.34363  0.05649  0.43695  Biso   1.000  Ir
  Ir41     1.0000 0.13319  0.11489  0.43612  Biso   1.000  Ir
  Ir42     1.0000 0.86681  0.88511  0.93612  Biso   1.000  Ir
  Ir43     1.0000 0.86681  0.61489  0.06388  Biso   1.000  Ir
  Ir44     1.0000 0.13319  0.38510  0.56388  Biso   1.000  Ir
  Ir45     1.0000 0.86681  0.88511  0.56388  Biso   1.000  Ir
  Ir46     1.0000 0.13319  0.11489  0.06388  Biso   1.000  Ir
  Ir47     1.0000 0.13319  0.38510  0.93612  Biso   1.000  Ir
  Ir48     1.0000 0.86681  0.61489  0.43612  Biso   1.000  Ir
  Ir49     1.0000 0.46531  0.19867  0.06327  Biso   1.000  Ir
  Ir50     1.0000 0.53469  0.80132  0.56327  Biso   1.000  Ir
  Ir51     1.0000 0.53469  0.69868  0.43672  Biso   1.000  Ir
  Ir52     1.0000 0.46531  0.30133  0.93673  Biso   1.000  Ir
  Ir53     1.0000 0.53469  0.80132  0.93673  Biso   1.000  Ir
  Ir54     1.0000 0.46531  0.19867  0.43672  Biso   1.000  Ir
  Ir55     1.0000 0.46531  0.30133  0.56327  Biso   1.000  Ir
  Ir56     1.0000 0.53469  0.69868  0.06327  Biso   1.000  Ir
