data_image0
_cell_length_a       16.0051
_cell_length_b       16.0051
_cell_length_c       12.0359
_cell_angle_alpha    90
_cell_angle_beta     90
_cell_angle_gamma    120

_symmetry_space_group_name_H-M    "P 1"
_symmetry_int_tables_number       1

loop_
  _symmetry_equiv_pos_as_xyz
  'x, y, z'

loop_
  _atom_site_label
  _atom_site_occupancy
  _atom_site_fract_x
  _atom_site_fract_y
  _atom_site_fract_z
  _atom_site_thermal_displace_type
  _atom_site_B_iso_or_equiv
  _atom_site_type_symbol
  O1       1.0000 0.46401  0.00000  0.00589  Biso   1.000  O
  O2       1.0000 1.00000  0.46401  0.00589  Biso   1.000  O
  O3       1.0000 0.53599  0.53599  0.00589  Biso   1.000  O
  O4       1.0000 0.53599  0.00000  0.50589  Biso   1.000  O
  O5       1.0000 0.00000  0.53599  0.50589  Biso   1.000  O
  O6       1.0000 0.46401  0.46401  0.50589  Biso   1.000  O
  O7       1.0000 0.33242  0.00000  0.20399  Biso   1.000  O
  O8       1.0000 0.00000  0.33242  0.20399  Biso   1.000  O
  O9       1.0000 0.66758  0.66758  0.20399  Biso   1.000  O
  O10      1.0000 0.66758  0.00000  0.70399  Biso   1.000  O
  O11      1.0000 1.00000  0.66758  0.70399  Biso   1.000  O
  O12      1.0000 0.33242  0.33242  0.70399  Biso   1.000  O
  O13      1.0000 0.33360  0.13158  0.47947  Biso   1.000  O
  O14      1.0000 0.86842  0.20202  0.47947  Biso   1.000  O
  O15      1.0000 0.79798  0.66640  0.47947  Biso   1.000  O
  O16      1.0000 0.66640  0.86842  0.97947  Biso   1.000  O
  O17      1.0000 0.13158  0.79798  0.97947  Biso   1.000  O
  O18      1.0000 0.20202  0.33360  0.97947  Biso   1.000  O
  O19      1.0000 0.86842  0.66640  0.97947  Biso   1.000  O
  O20      1.0000 0.79798  0.13158  0.97947  Biso   1.000  O
  O21      1.0000 0.33360  0.20202  0.97947  Biso   1.000  O
  O22      1.0000 0.13158  0.33360  0.47947  Biso   1.000  O
  O23      1.0000 0.20202  0.86842  0.47947  Biso   1.000  O
  O24      1.0000 0.66640  0.79798  0.47947  Biso   1.000  O
  Ir1      1.0000 0.32954  0.00000  0.05307  Biso   1.000  Ir
  Ir2      1.0000 1.00000  0.32954  0.05307  Biso   1.000  Ir
  Ir3      1.0000 0.67046  0.67046  0.05307  Biso   1.000  Ir
  Ir4      1.0000 0.67046  0.00000  0.55307  Biso   1.000  Ir
  Ir5      1.0000 1.00000  0.67046  0.55307  Biso   1.000  Ir
  Ir6      1.0000 0.32954  0.32954  0.55307  Biso   1.000  Ir
  Ir7      1.0000 0.33679  0.00000  0.42811  Biso   1.000  Ir
  Ir8      1.0000 0.00000  0.33679  0.42811  Biso   1.000  Ir
  Ir9      1.0000 0.66321  0.66321  0.42811  Biso   1.000  Ir
  Ir10     1.0000 0.66321  0.00000  0.92811  Biso   1.000  Ir
  Ir11     1.0000 0.00000  0.66321  0.92811  Biso   1.000  Ir
  Ir12     1.0000 0.33679  0.33679  0.92811  Biso   1.000  Ir
