data_image0
_cell_length_a       9.95333
_cell_length_b       11.206
_cell_length_c       21.0794
_cell_angle_alpha    90
_cell_angle_beta     90
_cell_angle_gamma    90

_symmetry_space_group_name_H-M    "P 1"
_symmetry_int_tables_number       1

loop_
  _symmetry_equiv_pos_as_xyz
  'x, y, z'

loop_
  _atom_site_label
  _atom_site_occupancy
  _atom_site_fract_x
  _atom_site_fract_y
  _atom_site_fract_z
  _atom_site_thermal_displace_type
  _atom_site_B_iso_or_equiv
  _atom_site_type_symbol
  O1       1.0000 0.25000  0.80572  0.00000  Biso   1.000  O
  O2       1.0000 0.75000  0.69429  0.00000  Biso   1.000  O
  O3       1.0000 0.45303  0.01788  0.03990  Biso   1.000  O
  O4       1.0000 0.54697  0.48212  0.03990  Biso   1.000  O
  O5       1.0000 0.54697  0.51788  0.46010  Biso   1.000  O
  O6       1.0000 0.45303  0.98212  0.46010  Biso   1.000  O
  O7       1.0000 0.25352  0.90833  0.14257  Biso   1.000  O
  O8       1.0000 0.74648  0.59167  0.14257  Biso   1.000  O
  O9       1.0000 0.74648  0.40833  0.35743  Biso   1.000  O
  O10      1.0000 0.25352  0.09167  0.35743  Biso   1.000  O
  O11      1.0000 0.50000  0.75000  0.09212  Biso   1.000  O
  O12      1.0000 0.50000  0.25000  0.40788  Biso   1.000  O
  O13      1.0000 0.95096  0.99024  0.10526  Biso   1.000  O
  O14      1.0000 0.04904  0.50976  0.10526  Biso   1.000  O
  O15      1.0000 0.04904  0.49024  0.39474  Biso   1.000  O
  O16      1.0000 0.95096  0.00976  0.39474  Biso   1.000  O
  O17      1.0000 0.25000  0.40544  0.00000  Biso   1.000  O
  O18      1.0000 0.75000  0.09456  0.00000  Biso   1.000  O
  O19      1.0000 0.00000  0.25000  0.04696  Biso   1.000  O
  O20      1.0000 0.00000  0.75000  0.45304  Biso   1.000  O
  O21      1.0000 0.00000  0.25000  0.31581  Biso   1.000  O
  O22      1.0000 0.00000  0.75000  0.18419  Biso   1.000  O
  O23      1.0000 0.05075  0.00000  0.25000  Biso   1.000  O
  O24      1.0000 0.94925  0.50000  0.25000  Biso   1.000  O
  O25      1.0000 0.75000  0.30572  0.50000  Biso   1.000  O
  O26      1.0000 0.25000  0.19429  0.50000  Biso   1.000  O
  O27      1.0000 0.95303  0.51788  0.53990  Biso   1.000  O
  O28      1.0000 0.04697  0.98212  0.53990  Biso   1.000  O
  O29      1.0000 0.04697  0.01788  0.96010  Biso   1.000  O
  O30      1.0000 0.95303  0.48212  0.96010  Biso   1.000  O
  O31      1.0000 0.75352  0.40833  0.64257  Biso   1.000  O
  O32      1.0000 0.24648  0.09167  0.64257  Biso   1.000  O
  O33      1.0000 0.24648  0.90833  0.85743  Biso   1.000  O
  O34      1.0000 0.75352  0.59167  0.85743  Biso   1.000  O
  O35      1.0000 0.00000  0.25000  0.59211  Biso   1.000  O
  O36      1.0000 0.00000  0.75000  0.90789  Biso   1.000  O
  O37      1.0000 0.45096  0.49024  0.60526  Biso   1.000  O
  O38      1.0000 0.54904  0.00976  0.60526  Biso   1.000  O
  O39      1.0000 0.54904  0.99024  0.89474  Biso   1.000  O
  O40      1.0000 0.45096  0.50976  0.89474  Biso   1.000  O
  O41      1.0000 0.75000  0.90544  0.50000  Biso   1.000  O
  O42      1.0000 0.25000  0.59456  0.50000  Biso   1.000  O
  O43      1.0000 0.50000  0.75000  0.54696  Biso   1.000  O
  O44      1.0000 0.50000  0.25000  0.95304  Biso   1.000  O
  O45      1.0000 0.50000  0.75000  0.81581  Biso   1.000  O
  O46      1.0000 0.50000  0.25000  0.68419  Biso   1.000  O
  O47      1.0000 0.55075  0.50000  0.75000  Biso   1.000  O
  O48      1.0000 0.44925  0.00000  0.75000  Biso   1.000  O
  Ir1      1.0000 0.36515  0.87022  0.06867  Biso   1.000  Ir
  Ir2      1.0000 0.63485  0.62978  0.06867  Biso   1.000  Ir
  Ir3      1.0000 0.63485  0.37022  0.43133  Biso   1.000  Ir
  Ir4      1.0000 0.36515  0.12978  0.43133  Biso   1.000  Ir
  Ir5      1.0000 0.93665  0.08821  0.02821  Biso   1.000  Ir
  Ir6      1.0000 0.06335  0.41179  0.02821  Biso   1.000  Ir
  Ir7      1.0000 0.06335  0.58821  0.47179  Biso   1.000  Ir
  Ir8      1.0000 0.93665  0.91179  0.47179  Biso   1.000  Ir
  Ir9      1.0000 0.06392  0.08720  0.32978  Biso   1.000  Ir
  Ir10     1.0000 0.93608  0.41280  0.32978  Biso   1.000  Ir
  Ir11     1.0000 0.93608  0.58720  0.17022  Biso   1.000  Ir
  Ir12     1.0000 0.06392  0.91280  0.17022  Biso   1.000  Ir
  Ir13     1.0000 0.86515  0.37022  0.56867  Biso   1.000  Ir
  Ir14     1.0000 0.13485  0.12978  0.56867  Biso   1.000  Ir
  Ir15     1.0000 0.13485  0.87022  0.93133  Biso   1.000  Ir
  Ir16     1.0000 0.86515  0.62978  0.93133  Biso   1.000  Ir
  Ir17     1.0000 0.43665  0.58821  0.52821  Biso   1.000  Ir
  Ir18     1.0000 0.56335  0.91179  0.52821  Biso   1.000  Ir
  Ir19     1.0000 0.56335  0.08821  0.97179  Biso   1.000  Ir
  Ir20     1.0000 0.43665  0.41179  0.97179  Biso   1.000  Ir
  Ir21     1.0000 0.56392  0.58720  0.82978  Biso   1.000  Ir
  Ir22     1.0000 0.43608  0.91280  0.82978  Biso   1.000  Ir
  Ir23     1.0000 0.43608  0.08720  0.67022  Biso   1.000  Ir
  Ir24     1.0000 0.56392  0.41280  0.67022  Biso   1.000  Ir
