data_image0
_cell_length_a       10.9504
_cell_length_b       10.9613
_cell_length_c       19.6419
_cell_angle_alpha    90
_cell_angle_beta     90
_cell_angle_gamma    90

_symmetry_space_group_name_H-M    "P 1"
_symmetry_int_tables_number       1

loop_
  _symmetry_equiv_pos_as_xyz
  'x, y, z'

loop_
  _atom_site_label
  _atom_site_occupancy
  _atom_site_fract_x
  _atom_site_fract_y
  _atom_site_fract_z
  _atom_site_thermal_displace_type
  _atom_site_B_iso_or_equiv
  _atom_site_type_symbol
  O1       1.0000 0.67584  0.66373  0.15268  Biso   1.000  O
  O2       1.0000 0.82416  0.33627  0.65268  Biso   1.000  O
  O3       1.0000 0.32416  0.16373  0.34732  Biso   1.000  O
  O4       1.0000 0.17584  0.83627  0.84732  Biso   1.000  O
  O5       1.0000 0.32416  0.33627  0.84732  Biso   1.000  O
  O6       1.0000 0.17584  0.66373  0.34732  Biso   1.000  O
  O7       1.0000 0.67584  0.83627  0.65268  Biso   1.000  O
  O8       1.0000 0.82416  0.16373  0.15268  Biso   1.000  O
  O9       1.0000 0.62728  0.87752  0.87520  Biso   1.000  O
  O10      1.0000 0.87272  0.12248  0.37520  Biso   1.000  O
  O11      1.0000 0.37272  0.37752  0.62480  Biso   1.000  O
  O12      1.0000 0.12728  0.62248  0.12480  Biso   1.000  O
  O13      1.0000 0.37272  0.12248  0.12480  Biso   1.000  O
  O14      1.0000 0.12728  0.87752  0.62480  Biso   1.000  O
  O15      1.0000 0.62728  0.62248  0.37520  Biso   1.000  O
  O16      1.0000 0.87272  0.37752  0.87520  Biso   1.000  O
  O17      1.0000 0.41388  0.57505  0.09753  Biso   1.000  O
  O18      1.0000 0.08612  0.42495  0.59753  Biso   1.000  O
  O19      1.0000 0.58612  0.07505  0.40247  Biso   1.000  O
  O20      1.0000 0.91388  0.92495  0.90247  Biso   1.000  O
  O21      1.0000 0.58612  0.42495  0.90247  Biso   1.000  O
  O22      1.0000 0.91388  0.57505  0.40247  Biso   1.000  O
  O23      1.0000 0.41388  0.92495  0.59753  Biso   1.000  O
  O24      1.0000 0.08612  0.07505  0.09753  Biso   1.000  O
  O25      1.0000 0.82413  0.83643  0.34739  Biso   1.000  O
  O26      1.0000 0.67587  0.16357  0.84739  Biso   1.000  O
  O27      1.0000 0.17587  0.33643  0.15261  Biso   1.000  O
  O28      1.0000 0.32413  0.66357  0.65261  Biso   1.000  O
  O29      1.0000 0.17587  0.16357  0.65261  Biso   1.000  O
  O30      1.0000 0.32413  0.83643  0.15261  Biso   1.000  O
  O31      1.0000 0.82413  0.66357  0.84739  Biso   1.000  O
  O32      1.0000 0.67587  0.33643  0.34739  Biso   1.000  O
  O33      1.0000 0.12730  0.37766  0.37514  Biso   1.000  O
  O34      1.0000 0.37270  0.62234  0.87514  Biso   1.000  O
  O35      1.0000 0.87270  0.87766  0.12486  Biso   1.000  O
  O36      1.0000 0.62730  0.12234  0.62486  Biso   1.000  O
  O37      1.0000 0.87270  0.62234  0.62486  Biso   1.000  O
  O38      1.0000 0.62730  0.37766  0.12486  Biso   1.000  O
  O39      1.0000 0.12730  0.12234  0.87514  Biso   1.000  O
  O40      1.0000 0.37270  0.87766  0.37514  Biso   1.000  O
  O41      1.0000 0.99630  0.99994  0.74997  Biso   1.000  O
  O42      1.0000 0.50370  0.00006  0.24997  Biso   1.000  O
  O43      1.0000 0.00370  0.49994  0.75003  Biso   1.000  O
  O44      1.0000 0.49630  0.50006  0.25003  Biso   1.000  O
  O45      1.0000 0.00370  0.00006  0.25003  Biso   1.000  O
  O46      1.0000 0.49630  0.99994  0.75003  Biso   1.000  O
  O47      1.0000 0.99630  0.50006  0.24997  Biso   1.000  O
  O48      1.0000 0.50370  0.49994  0.74997  Biso   1.000  O
  O49      1.0000 0.74995  0.24593  0.00003  Biso   1.000  O
  O50      1.0000 0.75005  0.75407  0.50003  Biso   1.000  O
  O51      1.0000 0.25005  0.74594  0.49997  Biso   1.000  O
  O52      1.0000 0.24995  0.25407  0.99997  Biso   1.000  O
  O53      1.0000 0.25005  0.75407  0.99997  Biso   1.000  O
  O54      1.0000 0.24995  0.24593  0.49997  Biso   1.000  O
  O55      1.0000 0.74995  0.25407  0.50003  Biso   1.000  O
  O56      1.0000 0.75005  0.74594  0.00003  Biso   1.000  O
  O57      1.0000 0.58612  0.57494  0.59749  Biso   1.000  O
  O58      1.0000 0.91388  0.42506  0.09749  Biso   1.000  O
  O59      1.0000 0.41388  0.07494  0.90251  Biso   1.000  O
  O60      1.0000 0.08612  0.92506  0.40251  Biso   1.000  O
  O61      1.0000 0.41388  0.42506  0.40251  Biso   1.000  O
  O62      1.0000 0.08612  0.57494  0.90251  Biso   1.000  O
  O63      1.0000 0.58612  0.92506  0.09749  Biso   1.000  O
  O64      1.0000 0.91388  0.07494  0.59749  Biso   1.000  O
  Ir1      1.0000 0.55340  0.96959  0.65635  Biso   1.000  Ir
  Ir2      1.0000 0.94660  0.03042  0.15635  Biso   1.000  Ir
  Ir3      1.0000 0.44660  0.46959  0.84365  Biso   1.000  Ir
  Ir4      1.0000 0.05340  0.53042  0.34365  Biso   1.000  Ir
  Ir5      1.0000 0.44660  0.03042  0.34365  Biso   1.000  Ir
  Ir6      1.0000 0.05340  0.96959  0.84365  Biso   1.000  Ir
  Ir7      1.0000 0.55340  0.53042  0.15635  Biso   1.000  Ir
  Ir8      1.0000 0.94660  0.46959  0.65635  Biso   1.000  Ir
  Ir9      1.0000 0.21991  0.19693  0.09366  Biso   1.000  Ir
  Ir10     1.0000 0.28009  0.80307  0.59366  Biso   1.000  Ir
  Ir11     1.0000 0.78009  0.69693  0.40634  Biso   1.000  Ir
  Ir12     1.0000 0.71991  0.30307  0.90634  Biso   1.000  Ir
  Ir13     1.0000 0.78009  0.80307  0.90634  Biso   1.000  Ir
  Ir14     1.0000 0.71991  0.19693  0.40634  Biso   1.000  Ir
  Ir15     1.0000 0.21991  0.30307  0.59366  Biso   1.000  Ir
  Ir16     1.0000 0.28009  0.69693  0.09366  Biso   1.000  Ir
  Ir17     1.0000 0.05340  0.46972  0.15630  Biso   1.000  Ir
  Ir18     1.0000 0.44660  0.53028  0.65630  Biso   1.000  Ir
  Ir19     1.0000 0.94660  0.96972  0.34370  Biso   1.000  Ir
  Ir20     1.0000 0.55340  0.03028  0.84370  Biso   1.000  Ir
  Ir21     1.0000 0.94660  0.53028  0.84370  Biso   1.000  Ir
  Ir22     1.0000 0.55340  0.46972  0.34370  Biso   1.000  Ir
  Ir23     1.0000 0.05340  0.03028  0.65630  Biso   1.000  Ir
  Ir24     1.0000 0.44660  0.96972  0.15630  Biso   1.000  Ir
  Ir25     1.0000 0.21992  0.69683  0.90630  Biso   1.000  Ir
  Ir26     1.0000 0.28008  0.30317  0.40630  Biso   1.000  Ir
  Ir27     1.0000 0.78008  0.19683  0.59370  Biso   1.000  Ir
  Ir28     1.0000 0.71992  0.80317  0.09370  Biso   1.000  Ir
  Ir29     1.0000 0.78008  0.30317  0.09370  Biso   1.000  Ir
  Ir30     1.0000 0.71992  0.69683  0.59370  Biso   1.000  Ir
  Ir31     1.0000 0.21992  0.80317  0.40630  Biso   1.000  Ir
  Ir32     1.0000 0.28008  0.19683  0.90630  Biso   1.000  Ir
