data_image0
_cell_length_a       9.24943
_cell_length_b       9.16221
_cell_length_c       9.13032
_cell_angle_alpha    90
_cell_angle_beta     90.1304
_cell_angle_gamma    90

_symmetry_space_group_name_H-M    "P 1"
_symmetry_int_tables_number       1

loop_
  _symmetry_equiv_pos_as_xyz
  'x, y, z'

loop_
  _atom_site_label
  _atom_site_occupancy
  _atom_site_fract_x
  _atom_site_fract_y
  _atom_site_fract_z
  _atom_site_thermal_displace_type
  _atom_site_B_iso_or_equiv
  _atom_site_type_symbol
  Ir1      1.0000 0.27397  0.99652  0.99477  Biso   1.000  Ir
  Ir2      1.0000 0.27397  0.00348  0.49478  Biso   1.000  Ir
  Ir3      1.0000 0.72779  0.74965  0.75223  Biso   1.000  Ir
  Ir4      1.0000 0.72779  0.25035  0.25222  Biso   1.000  Ir
  Ir5      1.0000 0.72547  0.24951  0.75203  Biso   1.000  Ir
  Ir6      1.0000 0.72547  0.75049  0.25203  Biso   1.000  Ir
  Ir7      1.0000 0.27455  0.50335  0.50897  Biso   1.000  Ir
  Ir8      1.0000 0.27455  0.49665  0.00897  Biso   1.000  Ir
  O1       1.0000 0.00000  0.49881  0.77002  Biso   1.000  O
  O2       1.0000 0.00000  0.50119  0.27002  Biso   1.000  O
  O3       1.0000 0.36626  0.75011  0.75219  Biso   1.000  O
  O4       1.0000 0.36626  0.24989  0.25219  Biso   1.000  O
  O5       1.0000 0.36557  0.24959  0.75211  Biso   1.000  O
  O6       1.0000 0.36557  0.75041  0.25211  Biso   1.000  O
  O7       1.0000 0.00000  0.00000  0.73385  Biso   1.000  O
  O8       1.0000 0.00000  0.00000  0.23385  Biso   1.000  O
  O9       1.0000 0.63399  0.50090  0.50369  Biso   1.000  O
  O10      1.0000 0.63399  0.49910  0.00369  Biso   1.000  O
  O11      1.0000 0.99960  0.25874  0.50260  Biso   1.000  O
  O12      1.0000 0.99960  0.74126  0.00260  Biso   1.000  O
  O13      1.0000 0.99983  0.75886  0.50133  Biso   1.000  O
  O14      1.0000 0.99983  0.24114  0.00133  Biso   1.000  O
  O15      1.0000 0.63381  0.00096  0.50051  Biso   1.000  O
  O16      1.0000 0.63381  0.99904  0.00051  Biso   1.000  O
