data_image0
_cell_length_a       10.5017
_cell_length_b       10.5017
_cell_length_c       16.8854
_cell_angle_alpha    90
_cell_angle_beta     90
_cell_angle_gamma    90

_symmetry_space_group_name_H-M    "P 1"
_symmetry_int_tables_number       1

loop_
  _symmetry_equiv_pos_as_xyz
  'x, y, z'

loop_
  _atom_site_label
  _atom_site_occupancy
  _atom_site_fract_x
  _atom_site_fract_y
  _atom_site_fract_z
  _atom_site_thermal_displace_type
  _atom_site_B_iso_or_equiv
  _atom_site_type_symbol
  O1       1.0000 0.60909  0.10774  0.31824  Biso   1.000  O
  O2       1.0000 0.39091  0.89226  0.31824  Biso   1.000  O
  O3       1.0000 0.89226  0.60909  0.31824  Biso   1.000  O
  O4       1.0000 0.10774  0.39091  0.31824  Biso   1.000  O
  O5       1.0000 0.39091  0.10774  0.18176  Biso   1.000  O
  O6       1.0000 0.60909  0.89226  0.18176  Biso   1.000  O
  O7       1.0000 0.10774  0.60909  0.18176  Biso   1.000  O
  O8       1.0000 0.89226  0.39091  0.18176  Biso   1.000  O
  O9       1.0000 0.39091  0.89226  0.68176  Biso   1.000  O
  O10      1.0000 0.60909  0.10774  0.68176  Biso   1.000  O
  O11      1.0000 0.10774  0.39091  0.68176  Biso   1.000  O
  O12      1.0000 0.89226  0.60909  0.68176  Biso   1.000  O
  O13      1.0000 0.60909  0.89226  0.81824  Biso   1.000  O
  O14      1.0000 0.39091  0.10774  0.81824  Biso   1.000  O
  O15      1.0000 0.89226  0.39091  0.81824  Biso   1.000  O
  O16      1.0000 0.10774  0.60909  0.81824  Biso   1.000  O
  O17      1.0000 0.69814  0.91501  0.00000  Biso   1.000  O
  O18      1.0000 0.30186  0.08499  0.00000  Biso   1.000  O
  O19      1.0000 0.08499  0.69814  0.00000  Biso   1.000  O
  O20      1.0000 0.91501  0.30186  0.00000  Biso   1.000  O
  O21      1.0000 0.30186  0.91501  0.50000  Biso   1.000  O
  O22      1.0000 0.69814  0.08499  0.50000  Biso   1.000  O
  O23      1.0000 0.91501  0.69814  0.50000  Biso   1.000  O
  O24      1.0000 0.08499  0.30186  0.50000  Biso   1.000  O
  O25      1.0000 0.89349  0.81100  0.13213  Biso   1.000  O
  O26      1.0000 0.10651  0.18901  0.13213  Biso   1.000  O
  O27      1.0000 0.18901  0.89349  0.13213  Biso   1.000  O
  O28      1.0000 0.81100  0.10651  0.13213  Biso   1.000  O
  O29      1.0000 0.10651  0.81100  0.36787  Biso   1.000  O
  O30      1.0000 0.89349  0.18901  0.36787  Biso   1.000  O
  O31      1.0000 0.81100  0.89349  0.36787  Biso   1.000  O
  O32      1.0000 0.18901  0.10651  0.36787  Biso   1.000  O
  O33      1.0000 0.10651  0.18901  0.86787  Biso   1.000  O
  O34      1.0000 0.89349  0.81100  0.86787  Biso   1.000  O
  O35      1.0000 0.81100  0.10651  0.86787  Biso   1.000  O
  O36      1.0000 0.18901  0.89349  0.86787  Biso   1.000  O
  O37      1.0000 0.89349  0.18901  0.63213  Biso   1.000  O
  O38      1.0000 0.10651  0.81100  0.63213  Biso   1.000  O
  O39      1.0000 0.18901  0.10651  0.63213  Biso   1.000  O
  O40      1.0000 0.81100  0.89349  0.63213  Biso   1.000  O
  Ir1      1.0000 0.75350  0.93073  0.11100  Biso   1.000  Ir
  Ir2      1.0000 0.24649  0.06927  0.11100  Biso   1.000  Ir
  Ir3      1.0000 0.06927  0.75350  0.11100  Biso   1.000  Ir
  Ir4      1.0000 0.93073  0.24649  0.11100  Biso   1.000  Ir
  Ir5      1.0000 0.24649  0.93073  0.38900  Biso   1.000  Ir
  Ir6      1.0000 0.75350  0.06927  0.38900  Biso   1.000  Ir
  Ir7      1.0000 0.93073  0.75350  0.38900  Biso   1.000  Ir
  Ir8      1.0000 0.06927  0.24649  0.38900  Biso   1.000  Ir
  Ir9      1.0000 0.24649  0.06927  0.88900  Biso   1.000  Ir
  Ir10     1.0000 0.75350  0.93073  0.88900  Biso   1.000  Ir
  Ir11     1.0000 0.93073  0.24649  0.88900  Biso   1.000  Ir
  Ir12     1.0000 0.06927  0.75350  0.88900  Biso   1.000  Ir
  Ir13     1.0000 0.75350  0.06927  0.61100  Biso   1.000  Ir
  Ir14     1.0000 0.24649  0.93073  0.61100  Biso   1.000  Ir
  Ir15     1.0000 0.06927  0.24649  0.61100  Biso   1.000  Ir
  Ir16     1.0000 0.93073  0.75350  0.61100  Biso   1.000  Ir
  Ir17     1.0000 0.50000  0.00000  0.25000  Biso   1.000  Ir
  Ir18     1.0000 0.00000  0.50000  0.25000  Biso   1.000  Ir
  Ir19     1.0000 0.50000  0.00000  0.75000  Biso   1.000  Ir
  Ir20     1.0000 0.00000  0.50000  0.75000  Biso   1.000  Ir
