data_image0
_cell_length_a       5.35905
_cell_length_b       5.35904
_cell_length_c       69.2286
_cell_angle_alpha    90
_cell_angle_beta     90
_cell_angle_gamma    120

_symmetry_space_group_name_H-M    "P 1"
_symmetry_int_tables_number       1

loop_
  _symmetry_equiv_pos_as_xyz
  'x, y, z'

loop_
  _atom_site_label
  _atom_site_occupancy
  _atom_site_fract_x
  _atom_site_fract_y
  _atom_site_fract_z
  _atom_site_thermal_displace_type
  _atom_site_B_iso_or_equiv
  _atom_site_type_symbol
  Ir1      1.0000 0.00000  0.00000  0.02500  Biso   1.000  Ir
  Ir2      1.0000 0.33333  0.66667  0.12500  Biso   1.000  Ir
  Ir3      1.0000 0.00000  0.00000  0.22500  Biso   1.000  Ir
  Ir4      1.0000 0.00000  0.00000  0.32500  Biso   1.000  Ir
  Ir5      1.0000 0.00000  0.00000  0.42500  Biso   1.000  Ir
  Ir6      1.0000 0.00000  0.00000  0.52500  Biso   1.000  Ir
  Ir7      1.0000 0.00000  0.00000  0.62500  Biso   1.000  Ir
  Ir8      1.0000 0.00000  0.00000  0.72500  Biso   1.000  Ir
  Ir9      1.0000 0.00000  0.00000  0.82500  Biso   1.000  Ir
  Ir10     1.0000 0.00000  0.00000  0.92500  Biso   1.000  Ir
  O1       1.0000 0.33333  0.66667  0.00000  Biso   1.000  O
  O2       1.0000 0.66667  0.33333  0.05004  Biso   1.000  O
  O3       1.0000 0.00000  0.00000  0.09996  Biso   1.000  O
  O4       1.0000 0.66667  0.33333  0.15004  Biso   1.000  O
  O5       1.0000 0.33333  0.66667  0.19996  Biso   1.000  O
  O6       1.0000 0.66667  0.33333  0.25004  Biso   1.000  O
  O7       1.0000 0.33333  0.66667  0.29996  Biso   1.000  O
  O8       1.0000 0.66667  0.33333  0.35004  Biso   1.000  O
  O9       1.0000 0.33333  0.66667  0.39996  Biso   1.000  O
  O10      1.0000 0.66667  0.33333  0.45004  Biso   1.000  O
  O11      1.0000 0.33333  0.66667  0.49996  Biso   1.000  O
  O12      1.0000 0.66667  0.33333  0.55004  Biso   1.000  O
  O13      1.0000 0.33333  0.66667  0.59996  Biso   1.000  O
  O14      1.0000 0.66667  0.33333  0.65004  Biso   1.000  O
  O15      1.0000 0.33333  0.66667  0.69996  Biso   1.000  O
  O16      1.0000 0.66667  0.33333  0.75004  Biso   1.000  O
  O17      1.0000 0.33333  0.66667  0.79995  Biso   1.000  O
  O18      1.0000 0.66667  0.33333  0.85004  Biso   1.000  O
  O19      1.0000 0.33333  0.66667  0.89996  Biso   1.000  O
  O20      1.0000 0.66667  0.33333  0.95004  Biso   1.000  O
