data_image0
_cell_length_a       6.81858
_cell_length_b       16.284
_cell_length_c       11.6915
_cell_angle_alpha    90
_cell_angle_beta     92.7836
_cell_angle_gamma    90

_symmetry_space_group_name_H-M    "P 1"
_symmetry_int_tables_number       1

loop_
  _symmetry_equiv_pos_as_xyz
  'x, y, z'

loop_
  _atom_site_label
  _atom_site_occupancy
  _atom_site_fract_x
  _atom_site_fract_y
  _atom_site_fract_z
  _atom_site_thermal_displace_type
  _atom_site_B_iso_or_equiv
  _atom_site_type_symbol
  Ir1      1.0000 0.66116  0.49758  0.29348  Biso   1.000  Ir
  Ir2      1.0000 0.33884  0.99758  0.20652  Biso   1.000  Ir
  Ir3      1.0000 0.33884  0.50242  0.70652  Biso   1.000  Ir
  Ir4      1.0000 0.66116  0.00242  0.79349  Biso   1.000  Ir
  Ir5      1.0000 0.67055  0.84856  0.27949  Biso   1.000  Ir
  Ir6      1.0000 0.32945  0.34856  0.22051  Biso   1.000  Ir
  Ir7      1.0000 0.32945  0.15144  0.72051  Biso   1.000  Ir
  Ir8      1.0000 0.67055  0.65144  0.77949  Biso   1.000  Ir
  Ir9      1.0000 0.15771  0.15290  0.27791  Biso   1.000  Ir
  Ir10     1.0000 0.84229  0.65290  0.22209  Biso   1.000  Ir
  Ir11     1.0000 0.84229  0.84710  0.72209  Biso   1.000  Ir
  Ir12     1.0000 0.15771  0.34710  0.77791  Biso   1.000  Ir
  Ir13     1.0000 0.17286  0.80759  0.27720  Biso   1.000  Ir
  Ir14     1.0000 0.82714  0.30759  0.22280  Biso   1.000  Ir
  Ir15     1.0000 0.82714  0.19241  0.72280  Biso   1.000  Ir
  Ir16     1.0000 0.17286  0.69241  0.77720  Biso   1.000  Ir
  O1       1.0000 0.42067  0.83238  0.40066  Biso   1.000  O
  O2       1.0000 0.57933  0.33238  0.09934  Biso   1.000  O
  O3       1.0000 0.57933  0.16762  0.59934  Biso   1.000  O
  O4       1.0000 0.42067  0.66762  0.90066  Biso   1.000  O
  O5       1.0000 0.92650  0.83134  0.39901  Biso   1.000  O
  O6       1.0000 0.07350  0.33134  0.10099  Biso   1.000  O
  O7       1.0000 0.07350  0.16866  0.60099  Biso   1.000  O
  O8       1.0000 0.92650  0.66866  0.89901  Biso   1.000  O
  O9       1.0000 0.72913  0.61214  0.39297  Biso   1.000  O
  O10      1.0000 0.27087  0.11214  0.10703  Biso   1.000  O
  O11      1.0000 0.27087  0.38786  0.60703  Biso   1.000  O
  O12      1.0000 0.72913  0.88786  0.89297  Biso   1.000  O
  O13      1.0000 0.22115  0.03731  0.37681  Biso   1.000  O
  O14      1.0000 0.77885  0.53731  0.12319  Biso   1.000  O
  O15      1.0000 0.77885  0.96269  0.62319  Biso   1.000  O
  O16      1.0000 0.22115  0.46269  0.87681  Biso   1.000  O
  O17      1.0000 0.82244  0.39078  0.37491  Biso   1.000  O
  O18      1.0000 0.17756  0.89078  0.12509  Biso   1.000  O
  O19      1.0000 0.17756  0.60922  0.62509  Biso   1.000  O
  O20      1.0000 0.82244  0.10922  0.87491  Biso   1.000  O
  O21      1.0000 0.32726  0.25632  0.36170  Biso   1.000  O
  O22      1.0000 0.67274  0.75632  0.13830  Biso   1.000  O
  O23      1.0000 0.67274  0.74368  0.63830  Biso   1.000  O
  O24      1.0000 0.32726  0.24368  0.86170  Biso   1.000  O
  O25      1.0000 0.33623  0.47420  0.29939  Biso   1.000  O
  O26      1.0000 0.66377  0.97420  0.20061  Biso   1.000  O
  O27      1.0000 0.66377  0.52580  0.70061  Biso   1.000  O
  O28      1.0000 0.33623  0.02580  0.79939  Biso   1.000  O
  O29      1.0000 0.83350  0.17779  0.28597  Biso   1.000  O
  O30      1.0000 0.16650  0.67779  0.21403  Biso   1.000  O
  O31      1.0000 0.16650  0.82221  0.71403  Biso   1.000  O
  O32      1.0000 0.83350  0.32221  0.78597  Biso   1.000  O
