data_image0
_cell_length_a       23.3551
_cell_length_b       10.3841
_cell_length_c       28.3986
_cell_angle_alpha    90
_cell_angle_beta     90
_cell_angle_gamma    90

_symmetry_space_group_name_H-M    "P 1"
_symmetry_int_tables_number       1

loop_
  _symmetry_equiv_pos_as_xyz
  'x, y, z'

loop_
  _atom_site_label
  _atom_site_occupancy
  _atom_site_fract_x
  _atom_site_fract_y
  _atom_site_fract_z
  _atom_site_thermal_displace_type
  _atom_site_B_iso_or_equiv
  _atom_site_type_symbol
  O1       1.0000 0.29309  0.75000  0.82267  Biso   1.000  O
  O2       1.0000 0.70691  0.75000  0.82267  Biso   1.000  O
  O3       1.0000 0.70691  0.25000  0.17733  Biso   1.000  O
  O4       1.0000 0.29309  0.25000  0.17733  Biso   1.000  O
  O5       1.0000 0.56774  0.98253  0.08984  Biso   1.000  O
  O6       1.0000 0.43226  0.51747  0.08984  Biso   1.000  O
  O7       1.0000 0.43226  0.48253  0.91016  Biso   1.000  O
  O8       1.0000 0.56774  0.01747  0.91016  Biso   1.000  O
  O9       1.0000 0.43226  0.01747  0.91016  Biso   1.000  O
  O10      1.0000 0.56774  0.48253  0.91016  Biso   1.000  O
  O11      1.0000 0.56774  0.51747  0.08984  Biso   1.000  O
  O12      1.0000 0.43226  0.98253  0.08984  Biso   1.000  O
  O13      1.0000 0.50000  0.45600  0.18505  Biso   1.000  O
  O14      1.0000 0.50000  0.04400  0.18505  Biso   1.000  O
  O15      1.0000 0.50000  0.95600  0.81495  Biso   1.000  O
  O16      1.0000 0.50000  0.54400  0.81495  Biso   1.000  O
  O17      1.0000 0.80579  0.96632  0.82160  Biso   1.000  O
  O18      1.0000 0.19421  0.53368  0.82160  Biso   1.000  O
  O19      1.0000 0.19421  0.46632  0.17840  Biso   1.000  O
  O20      1.0000 0.80579  0.03368  0.17840  Biso   1.000  O
  O21      1.0000 0.19421  0.03368  0.17840  Biso   1.000  O
  O22      1.0000 0.80579  0.46632  0.17840  Biso   1.000  O
  O23      1.0000 0.80579  0.53368  0.82160  Biso   1.000  O
  O24      1.0000 0.19421  0.96632  0.82160  Biso   1.000  O
  O25      1.0000 0.34923  0.00000  0.00000  Biso   1.000  O
  O26      1.0000 0.65077  0.50000  0.00000  Biso   1.000  O
  O27      1.0000 0.65077  0.00000  0.00000  Biso   1.000  O
  O28      1.0000 0.34923  0.50000  0.00000  Biso   1.000  O
  O29      1.0000 0.67660  0.46447  0.78861  Biso   1.000  O
  O30      1.0000 0.32340  0.03553  0.78861  Biso   1.000  O
  O31      1.0000 0.32340  0.96447  0.21139  Biso   1.000  O
  O32      1.0000 0.67660  0.53553  0.21139  Biso   1.000  O
  O33      1.0000 0.32340  0.53553  0.21139  Biso   1.000  O
  O34      1.0000 0.67660  0.96447  0.21139  Biso   1.000  O
  O35      1.0000 0.67660  0.03553  0.78861  Biso   1.000  O
  O36      1.0000 0.32340  0.46447  0.78861  Biso   1.000  O
  O37      1.0000 0.50000  0.75000  0.72997  Biso   1.000  O
  O38      1.0000 0.50000  0.25000  0.27003  Biso   1.000  O
  O39      1.0000 0.70416  0.51704  0.89750  Biso   1.000  O
  O40      1.0000 0.29584  0.98296  0.89750  Biso   1.000  O
  O41      1.0000 0.29584  0.01704  0.10250  Biso   1.000  O
  O42      1.0000 0.70416  0.48296  0.10250  Biso   1.000  O
  O43      1.0000 0.29584  0.48296  0.10250  Biso   1.000  O
  O44      1.0000 0.70416  0.01704  0.10250  Biso   1.000  O
  O45      1.0000 0.70416  0.98296  0.89750  Biso   1.000  O
  O46      1.0000 0.29584  0.51704  0.89750  Biso   1.000  O
  O47      1.0000 0.43211  0.01568  0.71881  Biso   1.000  O
  O48      1.0000 0.56789  0.48432  0.71881  Biso   1.000  O
  O49      1.0000 0.56789  0.51568  0.28119  Biso   1.000  O
  O50      1.0000 0.43211  0.98432  0.28119  Biso   1.000  O
  O51      1.0000 0.56789  0.98432  0.28119  Biso   1.000  O
  O52      1.0000 0.43211  0.51568  0.28119  Biso   1.000  O
  O53      1.0000 0.43211  0.48432  0.71881  Biso   1.000  O
  O54      1.0000 0.56789  0.01568  0.71881  Biso   1.000  O
  O55      1.0000 0.34392  0.25000  0.70902  Biso   1.000  O
  O56      1.0000 0.65608  0.25000  0.70902  Biso   1.000  O
  O57      1.0000 0.65608  0.75000  0.29098  Biso   1.000  O
  O58      1.0000 0.34392  0.75000  0.29098  Biso   1.000  O
  O59      1.0000 0.65235  0.25000  0.93435  Biso   1.000  O
  O60      1.0000 0.34765  0.25000  0.93435  Biso   1.000  O
  O61      1.0000 0.34765  0.75000  0.06565  Biso   1.000  O
  O62      1.0000 0.65235  0.75000  0.06565  Biso   1.000  O
  O63      1.0000 0.50000  0.75000  0.90013  Biso   1.000  O
  O64      1.0000 0.50000  0.25000  0.09987  Biso   1.000  O
  O65      1.0000 0.79309  0.25000  0.32267  Biso   1.000  O
  O66      1.0000 0.20691  0.25000  0.32267  Biso   1.000  O
  O67      1.0000 0.20691  0.75000  0.67733  Biso   1.000  O
  O68      1.0000 0.79309  0.75000  0.67733  Biso   1.000  O
  O69      1.0000 0.06774  0.48253  0.58984  Biso   1.000  O
  O70      1.0000 0.93226  0.01747  0.58984  Biso   1.000  O
  O71      1.0000 0.93226  0.98253  0.41016  Biso   1.000  O
  O72      1.0000 0.06774  0.51747  0.41016  Biso   1.000  O
  O73      1.0000 0.93226  0.51747  0.41016  Biso   1.000  O
  O74      1.0000 0.06774  0.98253  0.41016  Biso   1.000  O
  O75      1.0000 0.06774  0.01747  0.58984  Biso   1.000  O
  O76      1.0000 0.93226  0.48253  0.58984  Biso   1.000  O
  O77      1.0000 0.00000  0.95600  0.68505  Biso   1.000  O
  O78      1.0000 0.00000  0.54400  0.68505  Biso   1.000  O
  O79      1.0000 0.00000  0.45600  0.31495  Biso   1.000  O
  O80      1.0000 0.00000  0.04400  0.31495  Biso   1.000  O
  O81      1.0000 0.30578  0.46632  0.32160  Biso   1.000  O
  O82      1.0000 0.69422  0.03368  0.32160  Biso   1.000  O
  O83      1.0000 0.69422  0.96632  0.67840  Biso   1.000  O
  O84      1.0000 0.30578  0.53368  0.67840  Biso   1.000  O
  O85      1.0000 0.69422  0.53368  0.67840  Biso   1.000  O
  O86      1.0000 0.30578  0.96632  0.67840  Biso   1.000  O
  O87      1.0000 0.30578  0.03368  0.32160  Biso   1.000  O
  O88      1.0000 0.69422  0.46632  0.32160  Biso   1.000  O
  O89      1.0000 0.84923  0.50000  0.50000  Biso   1.000  O
  O90      1.0000 0.15077  0.00000  0.50000  Biso   1.000  O
  O91      1.0000 0.15077  0.50000  0.50000  Biso   1.000  O
  O92      1.0000 0.84923  0.00000  0.50000  Biso   1.000  O
  O93      1.0000 0.17660  0.96447  0.28861  Biso   1.000  O
  O94      1.0000 0.82340  0.53553  0.28861  Biso   1.000  O
  O95      1.0000 0.82340  0.46447  0.71139  Biso   1.000  O
  O96      1.0000 0.17660  0.03553  0.71139  Biso   1.000  O
  O97      1.0000 0.82340  0.03553  0.71139  Biso   1.000  O
  O98      1.0000 0.17660  0.46447  0.71139  Biso   1.000  O
  O99      1.0000 0.17660  0.53553  0.28861  Biso   1.000  O
  O100     1.0000 0.82340  0.96447  0.28861  Biso   1.000  O
  O101     1.0000 0.00000  0.25000  0.22997  Biso   1.000  O
  O102     1.0000 0.00000  0.75000  0.77003  Biso   1.000  O
  O103     1.0000 0.20416  0.01704  0.39750  Biso   1.000  O
  O104     1.0000 0.79584  0.48296  0.39750  Biso   1.000  O
  O105     1.0000 0.79584  0.51704  0.60250  Biso   1.000  O
  O106     1.0000 0.20416  0.98296  0.60250  Biso   1.000  O
  O107     1.0000 0.79584  0.98296  0.60250  Biso   1.000  O
  O108     1.0000 0.20416  0.51704  0.60250  Biso   1.000  O
  O109     1.0000 0.20416  0.48296  0.39750  Biso   1.000  O
  O110     1.0000 0.79584  0.01704  0.39750  Biso   1.000  O
  O111     1.0000 0.93211  0.51568  0.21881  Biso   1.000  O
  O112     1.0000 0.06789  0.98432  0.21881  Biso   1.000  O
  O113     1.0000 0.06789  0.01568  0.78120  Biso   1.000  O
  O114     1.0000 0.93211  0.48432  0.78120  Biso   1.000  O
  O115     1.0000 0.06789  0.48432  0.78120  Biso   1.000  O
  O116     1.0000 0.93211  0.01568  0.78120  Biso   1.000  O
  O117     1.0000 0.93211  0.98432  0.21881  Biso   1.000  O
  O118     1.0000 0.06789  0.51568  0.21881  Biso   1.000  O
  O119     1.0000 0.84392  0.75000  0.20902  Biso   1.000  O
  O120     1.0000 0.15608  0.75000  0.20902  Biso   1.000  O
  O121     1.0000 0.15608  0.25000  0.79098  Biso   1.000  O
  O122     1.0000 0.84392  0.25000  0.79098  Biso   1.000  O
  O123     1.0000 0.15235  0.75000  0.43435  Biso   1.000  O
  O124     1.0000 0.84765  0.75000  0.43435  Biso   1.000  O
  O125     1.0000 0.84765  0.25000  0.56565  Biso   1.000  O
  O126     1.0000 0.15235  0.25000  0.56565  Biso   1.000  O
  O127     1.0000 0.00000  0.25000  0.40013  Biso   1.000  O
  O128     1.0000 0.00000  0.75000  0.59987  Biso   1.000  O
  Ir1      1.0000 0.64842  0.43360  0.72395  Biso   1.000  Ir
  Ir2      1.0000 0.35158  0.06640  0.72395  Biso   1.000  Ir
  Ir3      1.0000 0.35158  0.93360  0.27605  Biso   1.000  Ir
  Ir4      1.0000 0.64842  0.56640  0.27605  Biso   1.000  Ir
  Ir5      1.0000 0.35158  0.56640  0.27605  Biso   1.000  Ir
  Ir6      1.0000 0.64842  0.93360  0.27605  Biso   1.000  Ir
  Ir7      1.0000 0.64842  0.06640  0.72395  Biso   1.000  Ir
  Ir8      1.0000 0.35158  0.43360  0.72395  Biso   1.000  Ir
  Ir9      1.0000 0.50000  0.43423  0.11644  Biso   1.000  Ir
  Ir10     1.0000 0.50000  0.06577  0.11644  Biso   1.000  Ir
  Ir11     1.0000 0.50000  0.93423  0.88356  Biso   1.000  Ir
  Ir12     1.0000 0.50000  0.56577  0.88356  Biso   1.000  Ir
  Ir13     1.0000 0.50000  0.93353  0.74624  Biso   1.000  Ir
  Ir14     1.0000 0.50000  0.56647  0.74624  Biso   1.000  Ir
  Ir15     1.0000 0.50000  0.43353  0.25376  Biso   1.000  Ir
  Ir16     1.0000 0.50000  0.06647  0.25376  Biso   1.000  Ir
  Ir17     1.0000 0.35680  0.56291  0.06448  Biso   1.000  Ir
  Ir18     1.0000 0.64320  0.93709  0.06448  Biso   1.000  Ir
  Ir19     1.0000 0.64320  0.06291  0.93553  Biso   1.000  Ir
  Ir20     1.0000 0.35680  0.43709  0.93553  Biso   1.000  Ir
  Ir21     1.0000 0.64320  0.43709  0.93553  Biso   1.000  Ir
  Ir22     1.0000 0.35680  0.06291  0.93553  Biso   1.000  Ir
  Ir23     1.0000 0.35680  0.93709  0.06448  Biso   1.000  Ir
  Ir24     1.0000 0.64320  0.56291  0.06448  Biso   1.000  Ir
  Ir25     1.0000 0.27633  0.56620  0.83277  Biso   1.000  Ir
  Ir26     1.0000 0.72368  0.93380  0.83277  Biso   1.000  Ir
  Ir27     1.0000 0.72368  0.06620  0.16723  Biso   1.000  Ir
  Ir28     1.0000 0.27633  0.43380  0.16723  Biso   1.000  Ir
  Ir29     1.0000 0.72368  0.43380  0.16723  Biso   1.000  Ir
  Ir30     1.0000 0.27633  0.06620  0.16723  Biso   1.000  Ir
  Ir31     1.0000 0.27633  0.93380  0.83277  Biso   1.000  Ir
  Ir32     1.0000 0.72368  0.56620  0.83277  Biso   1.000  Ir
  Ir33     1.0000 0.14842  0.93360  0.22395  Biso   1.000  Ir
  Ir34     1.0000 0.85158  0.56640  0.22395  Biso   1.000  Ir
  Ir35     1.0000 0.85158  0.43360  0.77605  Biso   1.000  Ir
  Ir36     1.0000 0.14842  0.06640  0.77605  Biso   1.000  Ir
  Ir37     1.0000 0.85158  0.06640  0.77605  Biso   1.000  Ir
  Ir38     1.0000 0.14842  0.43360  0.77605  Biso   1.000  Ir
  Ir39     1.0000 0.14842  0.56640  0.22395  Biso   1.000  Ir
  Ir40     1.0000 0.85158  0.93360  0.22395  Biso   1.000  Ir
  Ir41     1.0000 0.00000  0.93423  0.61644  Biso   1.000  Ir
  Ir42     1.0000 0.00000  0.56577  0.61644  Biso   1.000  Ir
  Ir43     1.0000 0.00000  0.43423  0.38356  Biso   1.000  Ir
  Ir44     1.0000 0.00000  0.06577  0.38356  Biso   1.000  Ir
  Ir45     1.0000 0.00000  0.43353  0.24624  Biso   1.000  Ir
  Ir46     1.0000 0.00000  0.06647  0.24624  Biso   1.000  Ir
  Ir47     1.0000 0.00000  0.93353  0.75376  Biso   1.000  Ir
  Ir48     1.0000 0.00000  0.56647  0.75376  Biso   1.000  Ir
  Ir49     1.0000 0.85680  0.06291  0.56447  Biso   1.000  Ir
  Ir50     1.0000 0.14320  0.43709  0.56447  Biso   1.000  Ir
  Ir51     1.0000 0.14320  0.56291  0.43552  Biso   1.000  Ir
  Ir52     1.0000 0.85680  0.93709  0.43552  Biso   1.000  Ir
  Ir53     1.0000 0.14320  0.93709  0.43552  Biso   1.000  Ir
  Ir54     1.0000 0.85680  0.56291  0.43552  Biso   1.000  Ir
  Ir55     1.0000 0.85680  0.43709  0.56447  Biso   1.000  Ir
  Ir56     1.0000 0.14320  0.06291  0.56447  Biso   1.000  Ir
  Ir57     1.0000 0.77633  0.06620  0.33277  Biso   1.000  Ir
  Ir58     1.0000 0.22368  0.43380  0.33277  Biso   1.000  Ir
  Ir59     1.0000 0.22368  0.56620  0.66723  Biso   1.000  Ir
  Ir60     1.0000 0.77633  0.93380  0.66723  Biso   1.000  Ir
  Ir61     1.0000 0.22368  0.93380  0.66723  Biso   1.000  Ir
  Ir62     1.0000 0.77633  0.56620  0.66723  Biso   1.000  Ir
  Ir63     1.0000 0.77633  0.43380  0.33277  Biso   1.000  Ir
  Ir64     1.0000 0.22368  0.06620  0.33277  Biso   1.000  Ir
