data_image0
_cell_length_a       6.40149
_cell_length_b       17.0548
_cell_length_c       31.6057
_cell_angle_alpha    90
_cell_angle_beta     90
_cell_angle_gamma    90

_symmetry_space_group_name_H-M    "P 1"
_symmetry_int_tables_number       1

loop_
  _symmetry_equiv_pos_as_xyz
  'x, y, z'

loop_
  _atom_site_label
  _atom_site_occupancy
  _atom_site_fract_x
  _atom_site_fract_y
  _atom_site_fract_z
  _atom_site_thermal_displace_type
  _atom_site_B_iso_or_equiv
  _atom_site_type_symbol
  O1       1.0000 0.50000  0.75000  0.19242  Biso   1.000  O
  O2       1.0000 0.00000  0.75000  0.30758  Biso   1.000  O
  O3       1.0000 0.50000  0.65684  0.08205  Biso   1.000  O
  O4       1.0000 0.50000  0.84316  0.08205  Biso   1.000  O
  O5       1.0000 0.00000  0.65684  0.41795  Biso   1.000  O
  O6       1.0000 0.00000  0.84316  0.41795  Biso   1.000  O
  O7       1.0000 0.25012  0.75000  0.01124  Biso   1.000  O
  O8       1.0000 0.74988  0.75000  0.01124  Biso   1.000  O
  O9       1.0000 0.24988  0.75000  0.48876  Biso   1.000  O
  O10      1.0000 0.75012  0.75000  0.48876  Biso   1.000  O
  O11      1.0000 0.25000  0.87425  0.25000  Biso   1.000  O
  O12      1.0000 0.75000  0.62575  0.25000  Biso   1.000  O
  O13      1.0000 0.25000  0.62575  0.25000  Biso   1.000  O
  O14      1.0000 0.75000  0.87425  0.25000  Biso   1.000  O
  O15      1.0000 0.50000  0.56432  0.16928  Biso   1.000  O
  O16      1.0000 0.50000  0.93568  0.16928  Biso   1.000  O
  O17      1.0000 0.00000  0.56432  0.33072  Biso   1.000  O
  O18      1.0000 0.00000  0.93568  0.33072  Biso   1.000  O
  O19      1.0000 0.50000  0.50000  0.50000  Biso   1.000  O
  O20      1.0000 0.50000  0.00000  0.50000  Biso   1.000  O
  O21      1.0000 0.50000  0.15551  0.44039  Biso   1.000  O
  O22      1.0000 0.50000  0.34449  0.44039  Biso   1.000  O
  O23      1.0000 0.00000  0.15551  0.05961  Biso   1.000  O
  O24      1.0000 0.00000  0.34449  0.05961  Biso   1.000  O
  O25      1.0000 0.24977  0.49548  0.08896  Biso   1.000  O
  O26      1.0000 0.75023  0.00452  0.08896  Biso   1.000  O
  O27      1.0000 0.25023  0.49548  0.41104  Biso   1.000  O
  O28      1.0000 0.74977  0.00452  0.41104  Biso   1.000  O
  O29      1.0000 0.25023  0.00452  0.41104  Biso   1.000  O
  O30      1.0000 0.74977  0.49548  0.41104  Biso   1.000  O
  O31      1.0000 0.24977  0.00452  0.08896  Biso   1.000  O
  O32      1.0000 0.75023  0.49548  0.08896  Biso   1.000  O
  O33      1.0000 0.00000  0.25000  0.69242  Biso   1.000  O
  O34      1.0000 0.50000  0.25000  0.80758  Biso   1.000  O
  O35      1.0000 0.00000  0.15684  0.58205  Biso   1.000  O
  O36      1.0000 0.00000  0.34316  0.58205  Biso   1.000  O
  O37      1.0000 0.50000  0.15684  0.91795  Biso   1.000  O
  O38      1.0000 0.50000  0.34316  0.91795  Biso   1.000  O
  O39      1.0000 0.75012  0.25000  0.51124  Biso   1.000  O
  O40      1.0000 0.24988  0.25000  0.51124  Biso   1.000  O
  O41      1.0000 0.74988  0.25000  0.98876  Biso   1.000  O
  O42      1.0000 0.25012  0.25000  0.98876  Biso   1.000  O
  O43      1.0000 0.75000  0.37425  0.75000  Biso   1.000  O
  O44      1.0000 0.25000  0.12575  0.75000  Biso   1.000  O
  O45      1.0000 0.75000  0.12575  0.75000  Biso   1.000  O
  O46      1.0000 0.25000  0.37425  0.75000  Biso   1.000  O
  O47      1.0000 0.00000  0.06432  0.66929  Biso   1.000  O
  O48      1.0000 0.00000  0.43568  0.66929  Biso   1.000  O
  O49      1.0000 0.50000  0.06432  0.83071  Biso   1.000  O
  O50      1.0000 0.50000  0.43568  0.83071  Biso   1.000  O
  O51      1.0000 0.00000  0.00000  0.00000  Biso   1.000  O
  O52      1.0000 0.00000  0.50000  0.00000  Biso   1.000  O
  O53      1.0000 0.00000  0.65551  0.94039  Biso   1.000  O
  O54      1.0000 0.00000  0.84449  0.94039  Biso   1.000  O
  O55      1.0000 0.50000  0.65551  0.55961  Biso   1.000  O
  O56      1.0000 0.50000  0.84449  0.55961  Biso   1.000  O
  O57      1.0000 0.74977  0.99548  0.58896  Biso   1.000  O
  O58      1.0000 0.25023  0.50452  0.58896  Biso   1.000  O
  O59      1.0000 0.75023  0.99548  0.91104  Biso   1.000  O
  O60      1.0000 0.24977  0.50452  0.91104  Biso   1.000  O
  O61      1.0000 0.75023  0.50452  0.91104  Biso   1.000  O
  O62      1.0000 0.24977  0.99548  0.91104  Biso   1.000  O
  O63      1.0000 0.74977  0.50452  0.58896  Biso   1.000  O
  O64      1.0000 0.25023  0.99548  0.58896  Biso   1.000  O
  Ir1      1.0000 0.50000  0.64167  0.21533  Biso   1.000  Ir
  Ir2      1.0000 0.50000  0.85833  0.21533  Biso   1.000  Ir
  Ir3      1.0000 0.00000  0.64167  0.28467  Biso   1.000  Ir
  Ir4      1.0000 0.00000  0.85833  0.28467  Biso   1.000  Ir
  Ir5      1.0000 0.00000  0.45999  0.05875  Biso   1.000  Ir
  Ir6      1.0000 0.00000  0.04001  0.05875  Biso   1.000  Ir
  Ir7      1.0000 0.50000  0.45999  0.44125  Biso   1.000  Ir
  Ir8      1.0000 0.50000  0.04001  0.44125  Biso   1.000  Ir
  Ir9      1.0000 0.50000  0.55225  0.10726  Biso   1.000  Ir
  Ir10     1.0000 0.50000  0.94775  0.10726  Biso   1.000  Ir
  Ir11     1.0000 0.00000  0.55225  0.39274  Biso   1.000  Ir
  Ir12     1.0000 0.00000  0.94775  0.39274  Biso   1.000  Ir
  Ir13     1.0000 0.00000  0.25000  0.02414  Biso   1.000  Ir
  Ir14     1.0000 0.50000  0.25000  0.47586  Biso   1.000  Ir
  Ir15     1.0000 0.50000  0.75000  0.04658  Biso   1.000  Ir
  Ir16     1.0000 0.00000  0.75000  0.45343  Biso   1.000  Ir
  Ir17     1.0000 0.00000  0.14167  0.71533  Biso   1.000  Ir
  Ir18     1.0000 0.00000  0.35833  0.71533  Biso   1.000  Ir
  Ir19     1.0000 0.50000  0.14167  0.78467  Biso   1.000  Ir
  Ir20     1.0000 0.50000  0.35833  0.78467  Biso   1.000  Ir
  Ir21     1.0000 0.50000  0.95999  0.55875  Biso   1.000  Ir
  Ir22     1.0000 0.50000  0.54001  0.55875  Biso   1.000  Ir
  Ir23     1.0000 0.00000  0.95999  0.94125  Biso   1.000  Ir
  Ir24     1.0000 0.00000  0.54001  0.94125  Biso   1.000  Ir
  Ir25     1.0000 0.00000  0.05225  0.60726  Biso   1.000  Ir
  Ir26     1.0000 0.00000  0.44775  0.60726  Biso   1.000  Ir
  Ir27     1.0000 0.50000  0.05225  0.89274  Biso   1.000  Ir
  Ir28     1.0000 0.50000  0.44775  0.89274  Biso   1.000  Ir
  Ir29     1.0000 0.50000  0.75000  0.52414  Biso   1.000  Ir
  Ir30     1.0000 0.00000  0.75000  0.97586  Biso   1.000  Ir
  Ir31     1.0000 0.00000  0.25000  0.54658  Biso   1.000  Ir
  Ir32     1.0000 0.50000  0.25000  0.95342  Biso   1.000  Ir
