data_image0
_cell_length_a       22.4929
_cell_length_b       18.9771
_cell_length_c       24.6352
_cell_angle_alpha    90
_cell_angle_beta     99.9284
_cell_angle_gamma    90

_symmetry_space_group_name_H-M    "P 1"
_symmetry_int_tables_number       1

loop_
  _symmetry_equiv_pos_as_xyz
  'x, y, z'

loop_
  _atom_site_label
  _atom_site_occupancy
  _atom_site_fract_x
  _atom_site_fract_y
  _atom_site_fract_z
  _atom_site_thermal_displace_type
  _atom_site_B_iso_or_equiv
  _atom_site_type_symbol
  O1       1.0000 0.02015  0.77913  0.41265  Biso   1.000  O
  O2       1.0000 0.97985  0.77913  0.08735  Biso   1.000  O
  O3       1.0000 0.97985  0.22087  0.58735  Biso   1.000  O
  O4       1.0000 0.02015  0.22087  0.91265  Biso   1.000  O
  O5       1.0000 0.07283  0.27787  0.10219  Biso   1.000  O
  O6       1.0000 0.92717  0.27787  0.39781  Biso   1.000  O
  O7       1.0000 0.92717  0.72213  0.89781  Biso   1.000  O
  O8       1.0000 0.07283  0.72213  0.60219  Biso   1.000  O
  O9       1.0000 0.52310  0.61059  0.19809  Biso   1.000  O
  O10      1.0000 0.47690  0.61059  0.30191  Biso   1.000  O
  O11      1.0000 0.47690  0.38941  0.80191  Biso   1.000  O
  O12      1.0000 0.52310  0.38941  0.69809  Biso   1.000  O
  O13      1.0000 0.63942  0.30537  0.06286  Biso   1.000  O
  O14      1.0000 0.36058  0.30537  0.43714  Biso   1.000  O
  O15      1.0000 0.36058  0.69463  0.93714  Biso   1.000  O
  O16      1.0000 0.63942  0.69463  0.56286  Biso   1.000  O
  O17      1.0000 0.69222  0.38574  0.41638  Biso   1.000  O
  O18      1.0000 0.30778  0.38574  0.08362  Biso   1.000  O
  O19      1.0000 0.30778  0.61426  0.58362  Biso   1.000  O
  O20      1.0000 0.69222  0.61426  0.91638  Biso   1.000  O
  O21      1.0000 0.68115  0.49061  0.70334  Biso   1.000  O
  O22      1.0000 0.31885  0.49061  0.79665  Biso   1.000  O
  O23      1.0000 0.31885  0.50939  0.29666  Biso   1.000  O
  O24      1.0000 0.68115  0.50939  0.20335  Biso   1.000  O
  O25      1.0000 0.28566  0.80088  0.23915  Biso   1.000  O
  O26      1.0000 0.71434  0.80088  0.26085  Biso   1.000  O
  O27      1.0000 0.71434  0.19912  0.76085  Biso   1.000  O
  O28      1.0000 0.28566  0.19912  0.73915  Biso   1.000  O
  O29      1.0000 0.95165  0.49247  0.31442  Biso   1.000  O
  O30      1.0000 0.04835  0.49247  0.18558  Biso   1.000  O
  O31      1.0000 0.04835  0.50753  0.68558  Biso   1.000  O
  O32      1.0000 0.95165  0.50753  0.81442  Biso   1.000  O
  O33      1.0000 0.00000  0.00000  0.00000  Biso   1.000  O
  O34      1.0000 0.00000  0.00000  0.50000  Biso   1.000  O
  O35      1.0000 1.00000  0.29367  0.75000  Biso   1.000  O
  O36      1.0000 0.00000  0.70633  0.25000  Biso   1.000  O
  Ir1      1.0000 0.43046  0.34572  0.85058  Biso   1.000  Ir
  Ir2      1.0000 0.56954  0.34572  0.64942  Biso   1.000  Ir
  Ir3      1.0000 0.56954  0.65428  0.14942  Biso   1.000  Ir
  Ir4      1.0000 0.43046  0.65428  0.35058  Biso   1.000  Ir
  Ir5      1.0000 0.06963  0.35135  0.89034  Biso   1.000  Ir
  Ir6      1.0000 0.93037  0.35135  0.60966  Biso   1.000  Ir
  Ir7      1.0000 0.93037  0.64865  0.10966  Biso   1.000  Ir
  Ir8      1.0000 0.06964  0.64865  0.39034  Biso   1.000  Ir
  Ir9      1.0000 0.50000  0.49629  0.25000  Biso   1.000  Ir
  Ir10     1.0000 0.50000  0.50371  0.75000  Biso   1.000  Ir
  Ir11     1.0000 0.80129  0.39641  0.24557  Biso   1.000  Ir
  Ir12     1.0000 0.19871  0.39641  0.25443  Biso   1.000  Ir
  Ir13     1.0000 0.19871  0.60359  0.75443  Biso   1.000  Ir
  Ir14     1.0000 0.80129  0.60359  0.74557  Biso   1.000  Ir
  Ir15     1.0000 0.95385  0.17472  0.94459  Biso   1.000  Ir
  Ir16     1.0000 0.04615  0.17472  0.55541  Biso   1.000  Ir
  Ir17     1.0000 0.04615  0.82529  0.05541  Biso   1.000  Ir
  Ir18     1.0000 0.95385  0.82529  0.44459  Biso   1.000  Ir
