data_image0
_cell_length_a       5.36151
_cell_length_b       5.36151
_cell_length_c       76.5271
_cell_angle_alpha    90
_cell_angle_beta     90
_cell_angle_gamma    120

_symmetry_space_group_name_H-M    "P 1"
_symmetry_int_tables_number       1

loop_
  _symmetry_equiv_pos_as_xyz
  'x, y, z'

loop_
  _atom_site_label
  _atom_site_occupancy
  _atom_site_fract_x
  _atom_site_fract_y
  _atom_site_fract_z
  _atom_site_thermal_displace_type
  _atom_site_B_iso_or_equiv
  _atom_site_type_symbol
  Ir1      1.0000 0.00000  0.00000  0.02274  Biso   1.000  Ir
  Ir2      1.0000 0.33333  0.66667  0.11359  Biso   1.000  Ir
  Ir3      1.0000 0.00000  0.00000  0.20448  Biso   1.000  Ir
  Ir4      1.0000 0.33333  0.66667  0.29544  Biso   1.000  Ir
  Ir5      1.0000 0.00000  0.00000  0.38638  Biso   1.000  Ir
  Ir6      1.0000 0.00000  0.00000  0.47732  Biso   1.000  Ir
  Ir7      1.0000 0.33333  0.66667  0.56824  Biso   1.000  Ir
  Ir8      1.0000 0.33333  0.66667  0.65906  Biso   1.000  Ir
  Ir9      1.0000 0.00000  0.00000  0.74997  Biso   1.000  Ir
  Ir10     1.0000 0.33333  0.66667  0.84095  Biso   1.000  Ir
  Ir11     1.0000 0.33333  0.66667  0.93186  Biso   1.000  Ir
  O1       1.0000 0.66667  0.33333  0.00012  Biso   1.000  O
  O2       1.0000 0.33333  0.66667  0.04532  Biso   1.000  O
  O3       1.0000 0.66667  0.33333  0.09108  Biso   1.000  O
  O4       1.0000 0.00000  0.00000  0.13626  Biso   1.000  O
  O5       1.0000 0.66667  0.33333  0.18197  Biso   1.000  O
  O6       1.0000 0.33333  0.66667  0.22715  Biso   1.000  O
  O7       1.0000 0.66667  0.33333  0.27288  Biso   1.000  O
  O8       1.0000 0.00000  0.00000  0.31806  Biso   1.000  O
  O9       1.0000 0.66667  0.33333  0.36376  Biso   1.000  O
  O10      1.0000 0.33333  0.66667  0.40894  Biso   1.000  O
  O11      1.0000 0.66667  0.33333  0.45465  Biso   1.000  O
  O12      1.0000 0.33333  0.66667  0.49984  Biso   1.000  O
  O13      1.0000 0.66667  0.33333  0.54557  Biso   1.000  O
  O14      1.0000 0.00000  0.00000  0.59075  Biso   1.000  O
  O15      1.0000 0.66667  0.33333  0.63650  Biso   1.000  O
  O16      1.0000 0.00000  0.00000  0.68167  Biso   1.000  O
  O17      1.0000 0.66667  0.33333  0.72740  Biso   1.000  O
  O18      1.0000 0.33333  0.66667  0.77261  Biso   1.000  O
  O19      1.0000 0.66667  0.33333  0.81832  Biso   1.000  O
  O20      1.0000 0.00000  0.00000  0.86351  Biso   1.000  O
  O21      1.0000 0.66667  0.33333  0.90920  Biso   1.000  O
  O22      1.0000 0.00000  0.00000  0.95439  Biso   1.000  O
