data_image0
_cell_length_a       8.32006
_cell_length_b       8.36458
_cell_length_c       8.43385
_cell_angle_alpha    90
_cell_angle_beta     90
_cell_angle_gamma    90

_symmetry_space_group_name_H-M    "P 1"
_symmetry_int_tables_number       1

loop_
  _symmetry_equiv_pos_as_xyz
  'x, y, z'

loop_
  _atom_site_label
  _atom_site_occupancy
  _atom_site_fract_x
  _atom_site_fract_y
  _atom_site_fract_z
  _atom_site_thermal_displace_type
  _atom_site_B_iso_or_equiv
  _atom_site_type_symbol
  O1       1.0000 0.54152  0.69631  0.64587  Biso   1.000  O
  O2       1.0000 0.95848  0.30369  0.14587  Biso   1.000  O
  O3       1.0000 0.45848  0.19631  0.85413  Biso   1.000  O
  O4       1.0000 0.04152  0.80369  0.35413  Biso   1.000  O
  O5       1.0000 0.59881  0.16437  0.20498  Biso   1.000  O
  O6       1.0000 0.90119  0.83563  0.70498  Biso   1.000  O
  O7       1.0000 0.40120  0.66437  0.29502  Biso   1.000  O
  O8       1.0000 0.09880  0.33563  0.79502  Biso   1.000  O
  O9       1.0000 0.63091  0.87005  0.97045  Biso   1.000  O
  O10      1.0000 0.86909  0.12995  0.47045  Biso   1.000  O
  O11      1.0000 0.36909  0.37005  0.52955  Biso   1.000  O
  O12      1.0000 0.13091  0.62995  0.02955  Biso   1.000  O
  O13      1.0000 0.71698  0.47135  0.39351  Biso   1.000  O
  O14      1.0000 0.78303  0.52865  0.89351  Biso   1.000  O
  O15      1.0000 0.28303  0.97135  0.10650  Biso   1.000  O
  O16      1.0000 0.21698  0.02865  0.60650  Biso   1.000  O
  Ir1      1.0000 0.50651  0.54952  0.46692  Biso   1.000  Ir
  Ir2      1.0000 0.99349  0.45048  0.96692  Biso   1.000  Ir
  Ir3      1.0000 0.49349  0.04952  0.03308  Biso   1.000  Ir
  Ir4      1.0000 0.00651  0.95048  0.53308  Biso   1.000  Ir
  Ir5      1.0000 0.71343  0.73349  0.80132  Biso   1.000  Ir
  Ir6      1.0000 0.78657  0.26651  0.30132  Biso   1.000  Ir
  Ir7      1.0000 0.28657  0.23349  0.69868  Biso   1.000  Ir
  Ir8      1.0000 0.21343  0.76651  0.19868  Biso   1.000  Ir
