data_image0
_cell_length_a       14.7954
_cell_length_b       14.7954
_cell_length_c       34.9039
_cell_angle_alpha    90
_cell_angle_beta     90
_cell_angle_gamma    90

_symmetry_space_group_name_H-M    "P 1"
_symmetry_int_tables_number       1

loop_
  _symmetry_equiv_pos_as_xyz
  'x, y, z'

loop_
  _atom_site_label
  _atom_site_occupancy
  _atom_site_fract_x
  _atom_site_fract_y
  _atom_site_fract_z
  _atom_site_thermal_displace_type
  _atom_site_B_iso_or_equiv
  _atom_site_type_symbol
  O1       1.0000 0.00000  0.29512  0.08244  Biso   1.000  O
  O2       1.0000 0.00000  0.70488  0.08244  Biso   1.000  O
  O3       1.0000 0.70488  0.00000  0.08244  Biso   1.000  O
  O4       1.0000 0.29512  0.00000  0.08244  Biso   1.000  O
  O5       1.0000 0.50000  0.79511  0.41756  Biso   1.000  O
  O6       1.0000 0.50000  0.20488  0.41756  Biso   1.000  O
  O7       1.0000 0.79511  0.50000  0.41756  Biso   1.000  O
  O8       1.0000 0.20488  0.50000  0.41756  Biso   1.000  O
  O9       1.0000 0.79501  0.00000  0.00000  Biso   1.000  O
  O10      1.0000 0.20499  0.00000  0.00000  Biso   1.000  O
  O11      1.0000 0.00000  0.79501  0.00000  Biso   1.000  O
  O12      1.0000 0.00000  0.20499  0.00000  Biso   1.000  O
  O13      1.0000 0.89090  0.89090  0.06866  Biso   1.000  O
  O14      1.0000 0.10910  0.10910  0.06866  Biso   1.000  O
  O15      1.0000 0.10910  0.89090  0.06866  Biso   1.000  O
  O16      1.0000 0.89090  0.10910  0.06866  Biso   1.000  O
  O17      1.0000 0.60910  0.39090  0.43134  Biso   1.000  O
  O18      1.0000 0.39090  0.60910  0.43134  Biso   1.000  O
  O19      1.0000 0.39090  0.39090  0.43134  Biso   1.000  O
  O20      1.0000 0.60910  0.60910  0.43134  Biso   1.000  O
  O21      1.0000 0.87208  0.37208  0.25000  Biso   1.000  O
  O22      1.0000 0.12792  0.62792  0.25000  Biso   1.000  O
  O23      1.0000 0.62792  0.87208  0.25000  Biso   1.000  O
  O24      1.0000 0.37208  0.12792  0.25000  Biso   1.000  O
  O25      1.0000 0.62792  0.12792  0.25000  Biso   1.000  O
  O26      1.0000 0.37208  0.87208  0.25000  Biso   1.000  O
  O27      1.0000 0.87208  0.62792  0.25000  Biso   1.000  O
  O28      1.0000 0.12792  0.37208  0.25000  Biso   1.000  O
  O29      1.0000 0.65784  0.89150  0.15874  Biso   1.000  O
  O30      1.0000 0.34216  0.10850  0.15874  Biso   1.000  O
  O31      1.0000 0.10850  0.65784  0.15874  Biso   1.000  O
  O32      1.0000 0.89150  0.34216  0.15874  Biso   1.000  O
  O33      1.0000 0.84216  0.39150  0.34126  Biso   1.000  O
  O34      1.0000 0.15784  0.60850  0.34126  Biso   1.000  O
  O35      1.0000 0.39150  0.15784  0.34126  Biso   1.000  O
  O36      1.0000 0.60850  0.84216  0.34126  Biso   1.000  O
  O37      1.0000 0.84216  0.60850  0.34126  Biso   1.000  O
  O38      1.0000 0.15784  0.39150  0.34126  Biso   1.000  O
  O39      1.0000 0.39150  0.84216  0.34126  Biso   1.000  O
  O40      1.0000 0.60850  0.15784  0.34126  Biso   1.000  O
  O41      1.0000 0.65784  0.10850  0.15874  Biso   1.000  O
  O42      1.0000 0.34216  0.89150  0.15874  Biso   1.000  O
  O43      1.0000 0.10850  0.34216  0.15874  Biso   1.000  O
  O44      1.0000 0.89150  0.65784  0.15874  Biso   1.000  O
  O45      1.0000 0.50000  0.76503  0.19159  Biso   1.000  O
  O46      1.0000 0.50000  0.23497  0.19159  Biso   1.000  O
  O47      1.0000 0.23497  0.50000  0.19159  Biso   1.000  O
  O48      1.0000 0.76503  0.50000  0.19159  Biso   1.000  O
  O49      1.0000 0.00000  0.26503  0.30841  Biso   1.000  O
  O50      1.0000 0.00000  0.73497  0.30841  Biso   1.000  O
  O51      1.0000 0.26503  0.00000  0.30841  Biso   1.000  O
  O52      1.0000 0.73497  0.00000  0.30841  Biso   1.000  O
  O53      1.0000 0.70531  0.70531  0.20106  Biso   1.000  O
  O54      1.0000 0.29469  0.29469  0.20106  Biso   1.000  O
  O55      1.0000 0.29469  0.70531  0.20106  Biso   1.000  O
  O56      1.0000 0.70531  0.29469  0.20106  Biso   1.000  O
  O57      1.0000 0.79469  0.20531  0.29893  Biso   1.000  O
  O58      1.0000 0.20531  0.79469  0.29893  Biso   1.000  O
  O59      1.0000 0.20531  0.20531  0.29893  Biso   1.000  O
  O60      1.0000 0.79469  0.79469  0.29893  Biso   1.000  O
  O61      1.0000 0.50000  0.00000  0.11341  Biso   1.000  O
  O62      1.0000 0.00000  0.50000  0.11341  Biso   1.000  O
  O63      1.0000 0.00000  0.50000  0.38659  Biso   1.000  O
  O64      1.0000 0.50000  0.00000  0.38659  Biso   1.000  O
  O65      1.0000 0.50000  0.79511  0.58244  Biso   1.000  O
  O66      1.0000 0.50000  0.20488  0.58244  Biso   1.000  O
  O67      1.0000 0.20488  0.50000  0.58244  Biso   1.000  O
  O68      1.0000 0.79511  0.50000  0.58244  Biso   1.000  O
  O69      1.0000 0.00000  0.29512  0.91756  Biso   1.000  O
  O70      1.0000 0.00000  0.70488  0.91756  Biso   1.000  O
  O71      1.0000 0.29512  0.00000  0.91756  Biso   1.000  O
  O72      1.0000 0.70488  0.00000  0.91756  Biso   1.000  O
  O73      1.0000 0.29501  0.50000  0.50000  Biso   1.000  O
  O74      1.0000 0.70499  0.50000  0.50000  Biso   1.000  O
  O75      1.0000 0.50000  0.29501  0.50000  Biso   1.000  O
  O76      1.0000 0.50000  0.70499  0.50000  Biso   1.000  O
  O77      1.0000 0.39090  0.39090  0.56866  Biso   1.000  O
  O78      1.0000 0.60910  0.60910  0.56866  Biso   1.000  O
  O79      1.0000 0.60910  0.39090  0.56866  Biso   1.000  O
  O80      1.0000 0.39090  0.60910  0.56866  Biso   1.000  O
  O81      1.0000 0.10910  0.89090  0.93134  Biso   1.000  O
  O82      1.0000 0.89090  0.10910  0.93134  Biso   1.000  O
  O83      1.0000 0.89090  0.89090  0.93134  Biso   1.000  O
  O84      1.0000 0.10910  0.10910  0.93134  Biso   1.000  O
  O85      1.0000 0.37208  0.87208  0.75000  Biso   1.000  O
  O86      1.0000 0.62792  0.12792  0.75000  Biso   1.000  O
  O87      1.0000 0.12792  0.37208  0.75000  Biso   1.000  O
  O88      1.0000 0.87208  0.62792  0.75000  Biso   1.000  O
  O89      1.0000 0.12792  0.62792  0.75000  Biso   1.000  O
  O90      1.0000 0.87208  0.37208  0.75000  Biso   1.000  O
  O91      1.0000 0.37208  0.12792  0.75000  Biso   1.000  O
  O92      1.0000 0.62792  0.87208  0.75000  Biso   1.000  O
  O93      1.0000 0.15784  0.39150  0.65874  Biso   1.000  O
  O94      1.0000 0.84216  0.60850  0.65874  Biso   1.000  O
  O95      1.0000 0.60850  0.15784  0.65874  Biso   1.000  O
  O96      1.0000 0.39150  0.84216  0.65874  Biso   1.000  O
  O97      1.0000 0.34216  0.89150  0.84126  Biso   1.000  O
  O98      1.0000 0.65784  0.10850  0.84126  Biso   1.000  O
  O99      1.0000 0.89150  0.65784  0.84126  Biso   1.000  O
  O100     1.0000 0.10850  0.34216  0.84126  Biso   1.000  O
  O101     1.0000 0.34216  0.10850  0.84126  Biso   1.000  O
  O102     1.0000 0.65784  0.89150  0.84126  Biso   1.000  O
  O103     1.0000 0.89150  0.34216  0.84126  Biso   1.000  O
  O104     1.0000 0.10850  0.65784  0.84126  Biso   1.000  O
  O105     1.0000 0.15784  0.60850  0.65874  Biso   1.000  O
  O106     1.0000 0.84216  0.39150  0.65874  Biso   1.000  O
  O107     1.0000 0.60850  0.84216  0.65874  Biso   1.000  O
  O108     1.0000 0.39150  0.15784  0.65874  Biso   1.000  O
  O109     1.0000 0.00000  0.26503  0.69159  Biso   1.000  O
  O110     1.0000 0.00000  0.73497  0.69159  Biso   1.000  O
  O111     1.0000 0.73497  0.00000  0.69159  Biso   1.000  O
  O112     1.0000 0.26503  0.00000  0.69159  Biso   1.000  O
  O113     1.0000 0.50000  0.76503  0.80841  Biso   1.000  O
  O114     1.0000 0.50000  0.23497  0.80841  Biso   1.000  O
  O115     1.0000 0.76503  0.50000  0.80841  Biso   1.000  O
  O116     1.0000 0.23497  0.50000  0.80841  Biso   1.000  O
  O117     1.0000 0.20531  0.20531  0.70106  Biso   1.000  O
  O118     1.0000 0.79469  0.79469  0.70106  Biso   1.000  O
  O119     1.0000 0.79469  0.20531  0.70106  Biso   1.000  O
  O120     1.0000 0.20531  0.79469  0.70106  Biso   1.000  O
  O121     1.0000 0.29469  0.70531  0.79893  Biso   1.000  O
  O122     1.0000 0.70531  0.29469  0.79893  Biso   1.000  O
  O123     1.0000 0.70531  0.70531  0.79893  Biso   1.000  O
  O124     1.0000 0.29469  0.29469  0.79893  Biso   1.000  O
  O125     1.0000 0.00000  0.50000  0.61341  Biso   1.000  O
  O126     1.0000 0.50000  0.00000  0.61341  Biso   1.000  O
  O127     1.0000 0.50000  0.00000  0.88659  Biso   1.000  O
  O128     1.0000 0.00000  0.50000  0.88659  Biso   1.000  O
  Ir1      1.0000 0.00000  0.17920  0.05512  Biso   1.000  Ir
  Ir2      1.0000 0.00000  0.82080  0.05512  Biso   1.000  Ir
  Ir3      1.0000 0.82080  0.00000  0.05512  Biso   1.000  Ir
  Ir4      1.0000 0.17920  0.00000  0.05512  Biso   1.000  Ir
  Ir5      1.0000 0.50000  0.67920  0.44488  Biso   1.000  Ir
  Ir6      1.0000 0.50000  0.32080  0.44488  Biso   1.000  Ir
  Ir7      1.0000 0.67920  0.50000  0.44488  Biso   1.000  Ir
  Ir8      1.0000 0.32080  0.50000  0.44488  Biso   1.000  Ir
  Ir9      1.0000 0.62381  0.80897  0.20031  Biso   1.000  Ir
  Ir10     1.0000 0.37619  0.19103  0.20031  Biso   1.000  Ir
  Ir11     1.0000 0.19103  0.62381  0.20031  Biso   1.000  Ir
  Ir12     1.0000 0.80897  0.37619  0.20031  Biso   1.000  Ir
  Ir13     1.0000 0.87619  0.30897  0.29969  Biso   1.000  Ir
  Ir14     1.0000 0.12381  0.69103  0.29969  Biso   1.000  Ir
  Ir15     1.0000 0.30897  0.12381  0.29969  Biso   1.000  Ir
  Ir16     1.0000 0.69103  0.87619  0.29969  Biso   1.000  Ir
  Ir17     1.0000 0.87619  0.69103  0.29969  Biso   1.000  Ir
  Ir18     1.0000 0.12381  0.30897  0.29969  Biso   1.000  Ir
  Ir19     1.0000 0.30897  0.87619  0.29969  Biso   1.000  Ir
  Ir20     1.0000 0.69103  0.12381  0.29969  Biso   1.000  Ir
  Ir21     1.0000 0.62381  0.19103  0.20031  Biso   1.000  Ir
  Ir22     1.0000 0.37619  0.80897  0.20031  Biso   1.000  Ir
  Ir23     1.0000 0.19103  0.37619  0.20031  Biso   1.000  Ir
  Ir24     1.0000 0.80897  0.62381  0.20031  Biso   1.000  Ir
  Ir25     1.0000 0.00000  0.37099  0.12827  Biso   1.000  Ir
  Ir26     1.0000 0.00000  0.62901  0.12827  Biso   1.000  Ir
  Ir27     1.0000 0.62901  0.00000  0.12827  Biso   1.000  Ir
  Ir28     1.0000 0.37099  0.00000  0.12827  Biso   1.000  Ir
  Ir29     1.0000 0.50000  0.87099  0.37173  Biso   1.000  Ir
  Ir30     1.0000 0.50000  0.12901  0.37173  Biso   1.000  Ir
  Ir31     1.0000 0.87099  0.50000  0.37173  Biso   1.000  Ir
  Ir32     1.0000 0.12901  0.50000  0.37173  Biso   1.000  Ir
  Ir33     1.0000 0.50000  0.67920  0.55512  Biso   1.000  Ir
  Ir34     1.0000 0.50000  0.32080  0.55512  Biso   1.000  Ir
  Ir35     1.0000 0.32080  0.50000  0.55512  Biso   1.000  Ir
  Ir36     1.0000 0.67920  0.50000  0.55512  Biso   1.000  Ir
  Ir37     1.0000 0.00000  0.17920  0.94488  Biso   1.000  Ir
  Ir38     1.0000 0.00000  0.82080  0.94488  Biso   1.000  Ir
  Ir39     1.0000 0.17920  0.00000  0.94488  Biso   1.000  Ir
  Ir40     1.0000 0.82080  0.00000  0.94488  Biso   1.000  Ir
  Ir41     1.0000 0.12381  0.30897  0.70031  Biso   1.000  Ir
  Ir42     1.0000 0.87619  0.69103  0.70031  Biso   1.000  Ir
  Ir43     1.0000 0.69103  0.12381  0.70031  Biso   1.000  Ir
  Ir44     1.0000 0.30897  0.87619  0.70031  Biso   1.000  Ir
  Ir45     1.0000 0.37619  0.80897  0.79969  Biso   1.000  Ir
  Ir46     1.0000 0.62381  0.19103  0.79969  Biso   1.000  Ir
  Ir47     1.0000 0.80897  0.62381  0.79969  Biso   1.000  Ir
  Ir48     1.0000 0.19103  0.37619  0.79969  Biso   1.000  Ir
  Ir49     1.0000 0.37619  0.19103  0.79969  Biso   1.000  Ir
  Ir50     1.0000 0.62381  0.80897  0.79969  Biso   1.000  Ir
  Ir51     1.0000 0.80897  0.37619  0.79969  Biso   1.000  Ir
  Ir52     1.0000 0.19103  0.62381  0.79969  Biso   1.000  Ir
  Ir53     1.0000 0.12381  0.69103  0.70031  Biso   1.000  Ir
  Ir54     1.0000 0.87619  0.30897  0.70031  Biso   1.000  Ir
  Ir55     1.0000 0.69103  0.87619  0.70031  Biso   1.000  Ir
  Ir56     1.0000 0.30897  0.12381  0.70031  Biso   1.000  Ir
  Ir57     1.0000 0.50000  0.87099  0.62827  Biso   1.000  Ir
  Ir58     1.0000 0.50000  0.12901  0.62827  Biso   1.000  Ir
  Ir59     1.0000 0.12901  0.50000  0.62827  Biso   1.000  Ir
  Ir60     1.0000 0.87099  0.50000  0.62827  Biso   1.000  Ir
  Ir61     1.0000 0.00000  0.37099  0.87173  Biso   1.000  Ir
  Ir62     1.0000 0.00000  0.62901  0.87173  Biso   1.000  Ir
  Ir63     1.0000 0.37099  0.00000  0.87173  Biso   1.000  Ir
  Ir64     1.0000 0.62901  0.00000  0.87173  Biso   1.000  Ir
