data_image0
_cell_length_a       10.7559
_cell_length_b       13.7064
_cell_length_c       21.3018
_cell_angle_alpha    90
_cell_angle_beta     90
_cell_angle_gamma    90

_symmetry_space_group_name_H-M    "P 1"
_symmetry_int_tables_number       1

loop_
  _symmetry_equiv_pos_as_xyz
  'x, y, z'

loop_
  _atom_site_label
  _atom_site_occupancy
  _atom_site_fract_x
  _atom_site_fract_y
  _atom_site_fract_z
  _atom_site_thermal_displace_type
  _atom_site_B_iso_or_equiv
  _atom_site_type_symbol
  O1       1.0000 0.71580  0.00858  0.15992  Biso   1.000  O
  O2       1.0000 0.28419  0.99142  0.65992  Biso   1.000  O
  O3       1.0000 0.28419  0.00858  0.34008  Biso   1.000  O
  O4       1.0000 0.71580  0.99142  0.84008  Biso   1.000  O
  O5       1.0000 0.82977  0.93520  0.29457  Biso   1.000  O
  O6       1.0000 0.17023  0.06480  0.79457  Biso   1.000  O
  O7       1.0000 0.17023  0.93520  0.20543  Biso   1.000  O
  O8       1.0000 0.82977  0.06480  0.70543  Biso   1.000  O
  O9       1.0000 0.63728  0.80566  0.21660  Biso   1.000  O
  O10      1.0000 0.36272  0.19434  0.71660  Biso   1.000  O
  O11      1.0000 0.36272  0.80566  0.28340  Biso   1.000  O
  O12      1.0000 0.63728  0.19434  0.78340  Biso   1.000  O
  O13      1.0000 0.41540  0.32795  0.16642  Biso   1.000  O
  O14      1.0000 0.58460  0.67205  0.66642  Biso   1.000  O
  O15      1.0000 0.58460  0.32795  0.33358  Biso   1.000  O
  O16      1.0000 0.41540  0.67205  0.83358  Biso   1.000  O
  O17      1.0000 0.86037  0.90067  0.96044  Biso   1.000  O
  O18      1.0000 0.13963  0.09933  0.46044  Biso   1.000  O
  O19      1.0000 0.13963  0.90067  0.53956  Biso   1.000  O
  O20      1.0000 0.86037  0.09933  0.03956  Biso   1.000  O
  O21      1.0000 0.67983  0.76364  0.87746  Biso   1.000  O
  O22      1.0000 0.32017  0.23636  0.37746  Biso   1.000  O
  O23      1.0000 0.32017  0.76364  0.62254  Biso   1.000  O
  O24      1.0000 0.67983  0.23636  0.12254  Biso   1.000  O
  O25      1.0000 0.44175  0.35010  0.82073  Biso   1.000  O
  O26      1.0000 0.55825  0.64990  0.32073  Biso   1.000  O
  O27      1.0000 0.55825  0.35010  0.67927  Biso   1.000  O
  O28      1.0000 0.44175  0.64990  0.17927  Biso   1.000  O
  O29      1.0000 0.07821  0.06321  0.93803  Biso   1.000  O
  O30      1.0000 0.92179  0.93679  0.43803  Biso   1.000  O
  O31      1.0000 0.92179  0.06321  0.56197  Biso   1.000  O
  O32      1.0000 0.07821  0.93679  0.06197  Biso   1.000  O
  O33      1.0000 0.21580  0.50858  0.15992  Biso   1.000  O
  O34      1.0000 0.78419  0.49142  0.65992  Biso   1.000  O
  O35      1.0000 0.78419  0.50858  0.34008  Biso   1.000  O
  O36      1.0000 0.21580  0.49142  0.84008  Biso   1.000  O
  O37      1.0000 0.32977  0.43520  0.29457  Biso   1.000  O
  O38      1.0000 0.67023  0.56480  0.79457  Biso   1.000  O
  O39      1.0000 0.67023  0.43520  0.20543  Biso   1.000  O
  O40      1.0000 0.32977  0.56480  0.70543  Biso   1.000  O
  O41      1.0000 0.13728  0.30566  0.21660  Biso   1.000  O
  O42      1.0000 0.86272  0.69434  0.71660  Biso   1.000  O
  O43      1.0000 0.86272  0.30566  0.28340  Biso   1.000  O
  O44      1.0000 0.13728  0.69434  0.78340  Biso   1.000  O
  O45      1.0000 0.91540  0.82795  0.16642  Biso   1.000  O
  O46      1.0000 0.08460  0.17205  0.66642  Biso   1.000  O
  O47      1.0000 0.08460  0.82795  0.33358  Biso   1.000  O
  O48      1.0000 0.91540  0.17205  0.83358  Biso   1.000  O
  O49      1.0000 0.36037  0.40067  0.96044  Biso   1.000  O
  O50      1.0000 0.63963  0.59933  0.46044  Biso   1.000  O
  O51      1.0000 0.63963  0.40067  0.53956  Biso   1.000  O
  O52      1.0000 0.36037  0.59933  0.03956  Biso   1.000  O
  O53      1.0000 0.17983  0.26364  0.87746  Biso   1.000  O
  O54      1.0000 0.82017  0.73636  0.37746  Biso   1.000  O
  O55      1.0000 0.82017  0.26364  0.62254  Biso   1.000  O
  O56      1.0000 0.17983  0.73636  0.12254  Biso   1.000  O
  O57      1.0000 0.94175  0.85010  0.82073  Biso   1.000  O
  O58      1.0000 0.05825  0.14990  0.32073  Biso   1.000  O
  O59      1.0000 0.05825  0.85010  0.67927  Biso   1.000  O
  O60      1.0000 0.94175  0.14990  0.17927  Biso   1.000  O
  O61      1.0000 0.57821  0.56321  0.93803  Biso   1.000  O
  O62      1.0000 0.42179  0.43679  0.43803  Biso   1.000  O
  O63      1.0000 0.42179  0.56321  0.56197  Biso   1.000  O
  O64      1.0000 0.57821  0.43679  0.06197  Biso   1.000  O
  Ir1      1.0000 0.77609  0.89598  0.20895  Biso   1.000  Ir
  Ir2      1.0000 0.22390  0.10402  0.70895  Biso   1.000  Ir
  Ir3      1.0000 0.22390  0.89598  0.29105  Biso   1.000  Ir
  Ir4      1.0000 0.77609  0.10402  0.79105  Biso   1.000  Ir
  Ir5      1.0000 0.79713  0.87385  0.87507  Biso   1.000  Ir
  Ir6      1.0000 0.20287  0.12615  0.37507  Biso   1.000  Ir
  Ir7      1.0000 0.20287  0.87385  0.62493  Biso   1.000  Ir
  Ir8      1.0000 0.79713  0.12615  0.12493  Biso   1.000  Ir
  Ir9      1.0000 0.58713  0.64221  0.86107  Biso   1.000  Ir
  Ir10     1.0000 0.41287  0.35779  0.36107  Biso   1.000  Ir
  Ir11     1.0000 0.41287  0.64221  0.63893  Biso   1.000  Ir
  Ir12     1.0000 0.58713  0.35779  0.13893  Biso   1.000  Ir
  Ir13     1.0000 0.50000  0.72891  0.25000  Biso   1.000  Ir
  Ir14     1.0000 0.50000  0.27109  0.75000  Biso   1.000  Ir
  Ir15     1.0000 0.96861  0.00000  0.00000  Biso   1.000  Ir
  Ir16     1.0000 0.03140  0.00000  0.50000  Biso   1.000  Ir
  Ir17     1.0000 0.27609  0.39598  0.20895  Biso   1.000  Ir
  Ir18     1.0000 0.72391  0.60402  0.70895  Biso   1.000  Ir
  Ir19     1.0000 0.72391  0.39598  0.29105  Biso   1.000  Ir
  Ir20     1.0000 0.27609  0.60402  0.79105  Biso   1.000  Ir
  Ir21     1.0000 0.29713  0.37385  0.87507  Biso   1.000  Ir
  Ir22     1.0000 0.70287  0.62615  0.37507  Biso   1.000  Ir
  Ir23     1.0000 0.70287  0.37385  0.62493  Biso   1.000  Ir
  Ir24     1.0000 0.29713  0.62615  0.12493  Biso   1.000  Ir
  Ir25     1.0000 0.08712  0.14221  0.86107  Biso   1.000  Ir
  Ir26     1.0000 0.91287  0.85779  0.36107  Biso   1.000  Ir
  Ir27     1.0000 0.91287  0.14221  0.63893  Biso   1.000  Ir
  Ir28     1.0000 0.08712  0.85779  0.13893  Biso   1.000  Ir
  Ir29     1.0000 0.00000  0.22891  0.25000  Biso   1.000  Ir
  Ir30     1.0000 0.00000  0.77109  0.75000  Biso   1.000  Ir
  Ir31     1.0000 0.46860  0.50000  0.00000  Biso   1.000  Ir
  Ir32     1.0000 0.53139  0.50000  0.50000  Biso   1.000  Ir
