data_image0
_cell_length_a       5.42786
_cell_length_b       5.42786
_cell_length_c       139.648
_cell_angle_alpha    90
_cell_angle_beta     90
_cell_angle_gamma    120

_symmetry_space_group_name_H-M    "P 1"
_symmetry_int_tables_number       1

loop_
  _symmetry_equiv_pos_as_xyz
  'x, y, z'

loop_
  _atom_site_label
  _atom_site_occupancy
  _atom_site_fract_x
  _atom_site_fract_y
  _atom_site_fract_z
  _atom_site_thermal_displace_type
  _atom_site_B_iso_or_equiv
  _atom_site_type_symbol
  Ir1      1.0000 0.00000  0.00000  0.53949  Biso   1.000  Ir
  Ir2      1.0000 0.66667  0.33333  0.75000  Biso   1.000  Ir
  Ir3      1.0000 0.00000  0.00000  0.43420  Biso   1.000  Ir
  Ir4      1.0000 0.00000  0.00000  0.69736  Biso   1.000  Ir
  Ir5      1.0000 0.66667  0.33333  0.06577  Biso   1.000  Ir
  Ir6      1.0000 0.66667  0.33333  0.48684  Biso   1.000  Ir
  Ir7      1.0000 0.00000  0.00000  0.01317  Biso   1.000  Ir
  Ir8      1.0000 0.00000  0.00000  0.11842  Biso   1.000  Ir
  Ir9      1.0000 0.00000  0.00000  0.59210  Biso   1.000  Ir
  Ir10     1.0000 0.66667  0.33333  0.64474  Biso   1.000  Ir
  Ir11     1.0000 0.00000  0.00000  0.27632  Biso   1.000  Ir
  Ir12     1.0000 0.66667  0.33333  0.38156  Biso   1.000  Ir
  Ir13     1.0000 0.00000  0.00000  0.85527  Biso   1.000  Ir
  Ir14     1.0000 0.66667  0.33333  0.17105  Biso   1.000  Ir
  Ir15     1.0000 0.66667  0.33333  0.90790  Biso   1.000  Ir
  Ir16     1.0000 0.66667  0.33333  0.32896  Biso   1.000  Ir
  Ir17     1.0000 0.00000  0.00000  0.22370  Biso   1.000  Ir
  Ir18     1.0000 0.66667  0.33333  0.96053  Biso   1.000  Ir
  Ir19     1.0000 0.66667  0.33333  0.80261  Biso   1.000  Ir
  O1       1.0000 0.66667  0.33333  0.70976  Biso   1.000  O
  O2       1.0000 0.33333  0.66667  0.73761  Biso   1.000  O
  O3       1.0000 0.33333  0.66667  0.84288  Biso   1.000  O
  O4       1.0000 0.33333  0.66667  0.47445  Biso   1.000  O
  O5       1.0000 0.66667  0.33333  0.02555  Biso   1.000  O
  O6       1.0000 0.33333  0.66667  0.94815  Biso   1.000  O
  O7       1.0000 0.66667  0.33333  0.44659  Biso   1.000  O
  O8       1.0000 0.33333  0.66667  0.26392  Biso   1.000  O
  O9       1.0000 0.33333  0.66667  0.79024  Biso   1.000  O
  O10      1.0000 0.33333  0.66667  0.05338  Biso   1.000  O
  O11      1.0000 0.66667  0.33333  0.86766  Biso   1.000  O
  O12      1.0000 0.00000  0.00000  0.92029  Biso   1.000  O
  O13      1.0000 0.66667  0.33333  0.13081  Biso   1.000  O
  O14      1.0000 0.33333  0.66667  0.42183  Biso   1.000  O
  O15      1.0000 0.00000  0.00000  0.97292  Biso   1.000  O
  O16      1.0000 0.33333  0.66667  0.21133  Biso   1.000  O
  O17      1.0000 0.00000  0.00000  0.65713  Biso   1.000  O
  O18      1.0000 0.33333  0.66667  0.68498  Biso   1.000  O
  O19      1.0000 0.00000  0.00000  0.07815  Biso   1.000  O
  O20      1.0000 0.66667  0.33333  0.23609  Biso   1.000  O
  O21      1.0000 0.33333  0.66667  0.89551  Biso   1.000  O
  O22      1.0000 0.66667  0.33333  0.55187  Biso   1.000  O
  O23      1.0000 0.00000  0.00000  0.39395  Biso   1.000  O
  O24      1.0000 0.00000  0.00000  0.81500  Biso   1.000  O
  O25      1.0000 0.33333  0.66667  0.00079  Biso   1.000  O
  O26      1.0000 0.33333  0.66667  0.36918  Biso   1.000  O
  O27      1.0000 0.33333  0.66667  0.52710  Biso   1.000  O
  O28      1.0000 0.00000  0.00000  0.34133  Biso   1.000  O
  O29      1.0000 0.66667  0.33333  0.60449  Biso   1.000  O
  O30      1.0000 0.00000  0.00000  0.18344  Biso   1.000  O
  O31      1.0000 0.00000  0.00000  0.76238  Biso   1.000  O
  O32      1.0000 0.33333  0.66667  0.57972  Biso   1.000  O
  O33      1.0000 0.33333  0.66667  0.63236  Biso   1.000  O
  O34      1.0000 0.00000  0.00000  0.49923  Biso   1.000  O
  O35      1.0000 0.33333  0.66667  0.15868  Biso   1.000  O
  O36      1.0000 0.66667  0.33333  0.28872  Biso   1.000  O
  O37      1.0000 0.33333  0.66667  0.10602  Biso   1.000  O
  O38      1.0000 0.33333  0.66667  0.31656  Biso   1.000  O
