data_image0
_cell_length_a       10.7599
_cell_length_b       10.7599
_cell_length_c       8.67007
_cell_angle_alpha    90
_cell_angle_beta     90
_cell_angle_gamma    120

_symmetry_space_group_name_H-M    "P 1"
_symmetry_int_tables_number       1

loop_
  _symmetry_equiv_pos_as_xyz
  'x, y, z'

loop_
  _atom_site_label
  _atom_site_occupancy
  _atom_site_fract_x
  _atom_site_fract_y
  _atom_site_fract_z
  _atom_site_thermal_displace_type
  _atom_site_B_iso_or_equiv
  _atom_site_type_symbol
  O1       1.0000 0.66667  0.65887  0.83333  Biso   1.000  O
  O2       1.0000 0.34113  0.00780  0.83333  Biso   1.000  O
  O3       1.0000 0.99220  0.33333  0.83333  Biso   1.000  O
  O4       1.0000 0.00000  0.80338  0.00000  Biso   1.000  O
  O5       1.0000 0.52995  0.86329  0.66667  Biso   1.000  O
  O6       1.0000 0.80338  0.00000  0.00000  Biso   1.000  O
  O7       1.0000 0.33333  0.99220  0.16667  Biso   1.000  O
  O8       1.0000 0.00780  0.34113  0.16667  Biso   1.000  O
  O9       1.0000 0.65887  0.66667  0.16667  Biso   1.000  O
  O10      1.0000 0.66667  0.13671  0.33333  Biso   1.000  O
  O11      1.0000 0.19662  0.19662  0.00000  Biso   1.000  O
  O12      1.0000 0.47005  0.33333  0.33333  Biso   1.000  O
  O13      1.0000 0.00000  0.32554  0.50000  Biso   1.000  O
  O14      1.0000 0.67446  0.67446  0.50000  Biso   1.000  O
  O15      1.0000 0.32554  0.00000  0.50000  Biso   1.000  O
  O16      1.0000 0.33333  0.47005  0.66667  Biso   1.000  O
  O17      1.0000 0.86329  0.52995  0.33333  Biso   1.000  O
  O18      1.0000 0.13671  0.66667  0.66667  Biso   1.000  O
  Ir1      1.0000 0.33333  0.88480  0.66667  Biso   1.000  Ir
  Ir2      1.0000 0.11520  0.44853  0.66667  Biso   1.000  Ir
  Ir3      1.0000 0.55147  0.66667  0.66667  Biso   1.000  Ir
  Ir4      1.0000 0.00000  0.21813  0.00000  Biso   1.000  Ir
  Ir5      1.0000 0.78187  0.78187  0.00000  Biso   1.000  Ir
  Ir6      1.0000 0.21813  0.00000  0.00000  Biso   1.000  Ir
  Ir7      1.0000 0.66667  0.55147  0.33333  Biso   1.000  Ir
  Ir8      1.0000 0.44853  0.11520  0.33333  Biso   1.000  Ir
  Ir9      1.0000 0.88480  0.33333  0.33333  Biso   1.000  Ir
