data_image0
_cell_length_a       12.4774
_cell_length_b       15.4028
_cell_length_c       17.1374
_cell_angle_alpha    90
_cell_angle_beta     90
_cell_angle_gamma    90

_symmetry_space_group_name_H-M    "P 1"
_symmetry_int_tables_number       1

loop_
  _symmetry_equiv_pos_as_xyz
  'x, y, z'

loop_
  _atom_site_label
  _atom_site_occupancy
  _atom_site_fract_x
  _atom_site_fract_y
  _atom_site_fract_z
  _atom_site_thermal_displace_type
  _atom_site_B_iso_or_equiv
  _atom_site_type_symbol
  O1       1.0000 0.91712  0.41641  0.07143  Biso   1.000  O
  O2       1.0000 0.08288  0.58359  0.07143  Biso   1.000  O
  O3       1.0000 0.08288  0.41641  0.92856  Biso   1.000  O
  O4       1.0000 0.91712  0.58359  0.92856  Biso   1.000  O
  O5       1.0000 0.75238  0.74797  0.71699  Biso   1.000  O
  O6       1.0000 0.24762  0.25203  0.71699  Biso   1.000  O
  O7       1.0000 0.24762  0.74797  0.28301  Biso   1.000  O
  O8       1.0000 0.75238  0.25203  0.28301  Biso   1.000  O
  O9       1.0000 0.50303  0.74943  0.75124  Biso   1.000  O
  O10      1.0000 0.49697  0.25057  0.75124  Biso   1.000  O
  O11      1.0000 0.49697  0.74943  0.24876  Biso   1.000  O
  O12      1.0000 0.50303  0.25057  0.24876  Biso   1.000  O
  O13      1.0000 0.89622  0.07239  0.30406  Biso   1.000  O
  O14      1.0000 0.10378  0.92761  0.30406  Biso   1.000  O
  O15      1.0000 0.10378  0.07239  0.69594  Biso   1.000  O
  O16      1.0000 0.89622  0.92761  0.69594  Biso   1.000  O
  O17      1.0000 0.39578  0.42835  0.69589  Biso   1.000  O
  O18      1.0000 0.60422  0.57165  0.69589  Biso   1.000  O
  O19      1.0000 0.60422  0.42835  0.30411  Biso   1.000  O
  O20      1.0000 0.39578  0.57165  0.30411  Biso   1.000  O
  O21      1.0000 0.58307  0.08325  0.07144  Biso   1.000  O
  O22      1.0000 0.41693  0.91675  0.07144  Biso   1.000  O
  O23      1.0000 0.41693  0.08325  0.92856  Biso   1.000  O
  O24      1.0000 0.58307  0.91675  0.92856  Biso   1.000  O
  O25      1.0000 0.00281  0.24808  0.24986  Biso   1.000  O
  O26      1.0000 0.99719  0.75192  0.24986  Biso   1.000  O
  O27      1.0000 0.99719  0.24808  0.75014  Biso   1.000  O
  O28      1.0000 0.00281  0.75192  0.75014  Biso   1.000  O
  O29      1.0000 0.39737  0.07302  0.19746  Biso   1.000  O
  O30      1.0000 0.60263  0.92698  0.19746  Biso   1.000  O
  O31      1.0000 0.60263  0.07302  0.80254  Biso   1.000  O
  O32      1.0000 0.39737  0.92698  0.80254  Biso   1.000  O
  O33      1.0000 0.10306  0.57227  0.80263  Biso   1.000  O
  O34      1.0000 0.89694  0.42773  0.80263  Biso   1.000  O
  O35      1.0000 0.89694  0.57227  0.19737  Biso   1.000  O
  O36      1.0000 0.10306  0.42773  0.19737  Biso   1.000  O
  O37      1.0000 0.90894  0.26890  0.92902  Biso   1.000  O
  O38      1.0000 0.09106  0.73110  0.92902  Biso   1.000  O
  O39      1.0000 0.09106  0.26890  0.07098  Biso   1.000  O
  O40      1.0000 0.90894  0.73110  0.07098  Biso   1.000  O
  O41      1.0000 0.74758  0.25212  0.78323  Biso   1.000  O
  O42      1.0000 0.25242  0.74788  0.78323  Biso   1.000  O
  O43      1.0000 0.25242  0.25212  0.21677  Biso   1.000  O
  O44      1.0000 0.74758  0.74788  0.21677  Biso   1.000  O
  O45      1.0000 0.91071  0.23276  0.42866  Biso   1.000  O
  O46      1.0000 0.08929  0.76724  0.42866  Biso   1.000  O
  O47      1.0000 0.08929  0.23276  0.57134  Biso   1.000  O
  O48      1.0000 0.91071  0.76724  0.57134  Biso   1.000  O
  O49      1.0000 0.59042  0.73233  0.57147  Biso   1.000  O
  O50      1.0000 0.40958  0.26767  0.57147  Biso   1.000  O
  O51      1.0000 0.40958  0.73233  0.42853  Biso   1.000  O
  O52      1.0000 0.59042  0.26767  0.42853  Biso   1.000  O
  O53      1.0000 0.08300  0.91602  0.57097  Biso   1.000  O
  O54      1.0000 0.91700  0.08398  0.57097  Biso   1.000  O
  O55      1.0000 0.91700  0.91602  0.42903  Biso   1.000  O
  O56      1.0000 0.08300  0.08398  0.42903  Biso   1.000  O
  O57      1.0000 0.41001  0.23145  0.07083  Biso   1.000  O
  O58      1.0000 0.58999  0.76854  0.07083  Biso   1.000  O
  O59      1.0000 0.58999  0.23145  0.92917  Biso   1.000  O
  O60      1.0000 0.41001  0.76854  0.92917  Biso   1.000  O
  O61      1.0000 0.58282  0.41571  0.57100  Biso   1.000  O
  O62      1.0000 0.41718  0.58429  0.57100  Biso   1.000  O
  O63      1.0000 0.41718  0.41571  0.42900  Biso   1.000  O
  O64      1.0000 0.58282  0.58429  0.42900  Biso   1.000  O
  Ir1      1.0000 0.50000  0.66274  0.50000  Biso   1.000  Ir
  Ir2      1.0000 0.50000  0.33726  0.50000  Biso   1.000  Ir
  Ir3      1.0000 0.50000  0.50000  0.63647  Biso   1.000  Ir
  Ir4      1.0000 0.50000  0.50000  0.36353  Biso   1.000  Ir
  Ir5      1.0000 0.00000  0.16239  0.50000  Biso   1.000  Ir
  Ir6      1.0000 0.00000  0.83761  0.50000  Biso   1.000  Ir
  Ir7      1.0000 0.88662  0.29891  0.81628  Biso   1.000  Ir
  Ir8      1.0000 0.11338  0.70109  0.81628  Biso   1.000  Ir
  Ir9      1.0000 0.11338  0.29891  0.18372  Biso   1.000  Ir
  Ir10     1.0000 0.88662  0.70109  0.18372  Biso   1.000  Ir
  Ir11     1.0000 0.50000  0.16108  0.00000  Biso   1.000  Ir
  Ir12     1.0000 0.50000  0.83892  0.00000  Biso   1.000  Ir
  Ir13     1.0000 0.11052  0.79833  0.31614  Biso   1.000  Ir
  Ir14     1.0000 0.88948  0.20167  0.31614  Biso   1.000  Ir
  Ir15     1.0000 0.88948  0.79833  0.68386  Biso   1.000  Ir
  Ir16     1.0000 0.11052  0.20167  0.68386  Biso   1.000  Ir
  Ir17     1.0000 0.00000  0.50000  0.86244  Biso   1.000  Ir
  Ir18     1.0000 0.00000  0.50000  0.13756  Biso   1.000  Ir
  Ir19     1.0000 0.61360  0.29930  0.31617  Biso   1.000  Ir
  Ir20     1.0000 0.38640  0.70070  0.31617  Biso   1.000  Ir
  Ir21     1.0000 0.38640  0.29930  0.68383  Biso   1.000  Ir
  Ir22     1.0000 0.61360  0.70070  0.68383  Biso   1.000  Ir
  Ir23     1.0000 0.50000  0.00000  0.86216  Biso   1.000  Ir
  Ir24     1.0000 0.50000  0.00000  0.13784  Biso   1.000  Ir
  Ir25     1.0000 0.00000  0.66150  0.00000  Biso   1.000  Ir
  Ir26     1.0000 0.00000  0.33850  0.00000  Biso   1.000  Ir
  Ir27     1.0000 0.00000  0.00000  0.36332  Biso   1.000  Ir
  Ir28     1.0000 0.00000  0.00000  0.63668  Biso   1.000  Ir
  Ir29     1.0000 0.61032  0.20208  0.81626  Biso   1.000  Ir
  Ir30     1.0000 0.38968  0.79792  0.81626  Biso   1.000  Ir
  Ir31     1.0000 0.38968  0.20208  0.18373  Biso   1.000  Ir
  Ir32     1.0000 0.61032  0.79792  0.18373  Biso   1.000  Ir
