data_image0
_cell_length_a       15.3194
_cell_length_b       6.06475
_cell_length_c       5.45681
_cell_angle_alpha    90
_cell_angle_beta     91.4297
_cell_angle_gamma    90

_symmetry_space_group_name_H-M    "P 1"
_symmetry_int_tables_number       1

loop_
  _symmetry_equiv_pos_as_xyz
  'x, y, z'

loop_
  _atom_site_label
  _atom_site_occupancy
  _atom_site_fract_x
  _atom_site_fract_y
  _atom_site_fract_z
  _atom_site_thermal_displace_type
  _atom_site_B_iso_or_equiv
  _atom_site_type_symbol
  O1       1.0000 0.42512  0.87730  0.03867  Biso   1.000  O
  O2       1.0000 0.07488  0.37730  0.46133  Biso   1.000  O
  O3       1.0000 0.07488  0.62270  0.96133  Biso   1.000  O
  O4       1.0000 0.42512  0.12270  0.53867  Biso   1.000  O
  O5       1.0000 0.40940  0.37278  0.03976  Biso   1.000  O
  O6       1.0000 0.09060  0.87278  0.46023  Biso   1.000  O
  O7       1.0000 0.09060  0.12722  0.96023  Biso   1.000  O
  O8       1.0000 0.40940  0.62722  0.53976  Biso   1.000  O
  O9       1.0000 0.25810  0.39853  0.31764  Biso   1.000  O
  O10      1.0000 0.24190  0.89853  0.18236  Biso   1.000  O
  O11      1.0000 0.24190  0.10147  0.68236  Biso   1.000  O
  O12      1.0000 0.25810  0.60147  0.81764  Biso   1.000  O
  O13      1.0000 0.92512  0.37730  0.03867  Biso   1.000  O
  O14      1.0000 0.57488  0.87730  0.46133  Biso   1.000  O
  O15      1.0000 0.57488  0.12270  0.96133  Biso   1.000  O
  O16      1.0000 0.92512  0.62270  0.53867  Biso   1.000  O
  O17      1.0000 0.90940  0.87278  0.03976  Biso   1.000  O
  O18      1.0000 0.59060  0.37278  0.46023  Biso   1.000  O
  O19      1.0000 0.59060  0.62722  0.96023  Biso   1.000  O
  O20      1.0000 0.90940  0.12722  0.53976  Biso   1.000  O
  O21      1.0000 0.75810  0.89853  0.31764  Biso   1.000  O
  O22      1.0000 0.74190  0.39853  0.18236  Biso   1.000  O
  O23      1.0000 0.74190  0.60147  0.68236  Biso   1.000  O
  O24      1.0000 0.75810  0.10147  0.81764  Biso   1.000  O
  Ir1      1.0000 0.00000  0.64278  0.25000  Biso   1.000  Ir
  Ir2      1.0000 0.50000  0.85722  0.75000  Biso   1.000  Ir
  Ir3      1.0000 0.33664  0.64512  0.17071  Biso   1.000  Ir
  Ir4      1.0000 0.16336  0.14512  0.32929  Biso   1.000  Ir
  Ir5      1.0000 0.16336  0.85488  0.82929  Biso   1.000  Ir
  Ir6      1.0000 0.33664  0.35488  0.67071  Biso   1.000  Ir
  Ir7      1.0000 0.50000  0.14278  0.25000  Biso   1.000  Ir
  Ir8      1.0000 0.00000  0.35722  0.75000  Biso   1.000  Ir
  Ir9      1.0000 0.83664  0.14512  0.17071  Biso   1.000  Ir
  Ir10     1.0000 0.66336  0.64512  0.32929  Biso   1.000  Ir
  Ir11     1.0000 0.66336  0.35488  0.82929  Biso   1.000  Ir
  Ir12     1.0000 0.83664  0.85488  0.67071  Biso   1.000  Ir
