data_image0
_cell_length_a       6.35311
_cell_length_b       9.2092
_cell_length_c       2.6595
_cell_angle_alpha    90
_cell_angle_beta     97.2994
_cell_angle_gamma    90

_symmetry_space_group_name_H-M    "P 1"
_symmetry_int_tables_number       1

loop_
  _symmetry_equiv_pos_as_xyz
  'x, y, z'

loop_
  _atom_site_label
  _atom_site_occupancy
  _atom_site_fract_x
  _atom_site_fract_y
  _atom_site_fract_z
  _atom_site_thermal_displace_type
  _atom_site_B_iso_or_equiv
  _atom_site_type_symbol
  Ir1      1.0000 0.50004  0.00000  0.49691  Biso   1.000  Ir
  Ir2      1.0000 0.00004  0.50000  0.49691  Biso   1.000  Ir
  O1       1.0000 0.49998  0.15119  0.00153  Biso   1.000  O
  O2       1.0000 0.49998  0.84881  0.00153  Biso   1.000  O
  O3       1.0000 0.99998  0.65119  0.00153  Biso   1.000  O
  O4       1.0000 0.99998  0.34881  0.00153  Biso   1.000  O
