data_image0
_cell_length_a       14.7157
_cell_length_b       22.1776
_cell_length_c       5.24325
_cell_angle_alpha    90
_cell_angle_beta     90.4995
_cell_angle_gamma    90

_symmetry_space_group_name_H-M    "P 1"
_symmetry_int_tables_number       1

loop_
  _symmetry_equiv_pos_as_xyz
  'x, y, z'

loop_
  _atom_site_label
  _atom_site_occupancy
  _atom_site_fract_x
  _atom_site_fract_y
  _atom_site_fract_z
  _atom_site_thermal_displace_type
  _atom_site_B_iso_or_equiv
  _atom_site_type_symbol
  O1       1.0000 0.36641  0.68073  0.32777  Biso   1.000  O
  O2       1.0000 0.63359  0.68073  0.67223  Biso   1.000  O
  O3       1.0000 0.63359  0.31927  0.67223  Biso   1.000  O
  O4       1.0000 0.36641  0.31927  0.32777  Biso   1.000  O
  O5       1.0000 0.31336  0.76111  0.80340  Biso   1.000  O
  O6       1.0000 0.68664  0.76111  0.19660  Biso   1.000  O
  O7       1.0000 0.68664  0.23889  0.19660  Biso   1.000  O
  O8       1.0000 0.31336  0.23889  0.80340  Biso   1.000  O
  O9       1.0000 0.33388  0.83439  0.33544  Biso   1.000  O
  O10      1.0000 0.66612  0.83439  0.66455  Biso   1.000  O
  O11      1.0000 0.66612  0.16561  0.66455  Biso   1.000  O
  O12      1.0000 0.33388  0.16561  0.33544  Biso   1.000  O
  O13      1.0000 0.30260  0.90848  0.88279  Biso   1.000  O
  O14      1.0000 0.69740  0.90848  0.11721  Biso   1.000  O
  O15      1.0000 0.69740  0.09152  0.11721  Biso   1.000  O
  O16      1.0000 0.30260  0.09152  0.88279  Biso   1.000  O
  O17      1.0000 0.50000  0.76821  0.00000  Biso   1.000  O
  O18      1.0000 0.50000  0.23179  0.00000  Biso   1.000  O
  O19      1.0000 0.35200  0.00000  0.33824  Biso   1.000  O
  O20      1.0000 0.64800  0.00000  0.66176  Biso   1.000  O
  O21      1.0000 0.50000  0.89217  0.50000  Biso   1.000  O
  O22      1.0000 0.50000  0.10783  0.50000  Biso   1.000  O
  O23      1.0000 0.50000  0.93597  0.00000  Biso   1.000  O
  O24      1.0000 0.50000  0.06403  0.00000  Biso   1.000  O
  O25      1.0000 0.86641  0.18073  0.32777  Biso   1.000  O
  O26      1.0000 0.13359  0.18073  0.67223  Biso   1.000  O
  O27      1.0000 0.13359  0.81927  0.67223  Biso   1.000  O
  O28      1.0000 0.86641  0.81927  0.32777  Biso   1.000  O
  O29      1.0000 0.81336  0.26111  0.80340  Biso   1.000  O
  O30      1.0000 0.18664  0.26111  0.19660  Biso   1.000  O
  O31      1.0000 0.18664  0.73889  0.19660  Biso   1.000  O
  O32      1.0000 0.81336  0.73889  0.80340  Biso   1.000  O
  O33      1.0000 0.83388  0.33439  0.33544  Biso   1.000  O
  O34      1.0000 0.16612  0.33439  0.66455  Biso   1.000  O
  O35      1.0000 0.16612  0.66561  0.66455  Biso   1.000  O
  O36      1.0000 0.83388  0.66561  0.33544  Biso   1.000  O
  O37      1.0000 0.80260  0.40848  0.88279  Biso   1.000  O
  O38      1.0000 0.19740  0.40848  0.11721  Biso   1.000  O
  O39      1.0000 0.19740  0.59152  0.11721  Biso   1.000  O
  O40      1.0000 0.80260  0.59152  0.88279  Biso   1.000  O
  O41      1.0000 0.00000  0.26821  0.00000  Biso   1.000  O
  O42      1.0000 0.00000  0.73179  0.00000  Biso   1.000  O
  O43      1.0000 0.85200  0.50000  0.33824  Biso   1.000  O
  O44      1.0000 0.14800  0.50000  0.66176  Biso   1.000  O
  O45      1.0000 0.00000  0.39217  0.50000  Biso   1.000  O
  O46      1.0000 0.00000  0.60783  0.50000  Biso   1.000  O
  O47      1.0000 0.00000  0.43597  0.00000  Biso   1.000  O
  O48      1.0000 0.00000  0.56403  0.00000  Biso   1.000  O
  Ir1      1.0000 0.26837  0.84056  0.67516  Biso   1.000  Ir
  Ir2      1.0000 0.73163  0.84056  0.32484  Biso   1.000  Ir
  Ir3      1.0000 0.73163  0.15945  0.32484  Biso   1.000  Ir
  Ir4      1.0000 0.26837  0.15945  0.67516  Biso   1.000  Ir
  Ir5      1.0000 0.38041  0.75736  0.13910  Biso   1.000  Ir
  Ir6      1.0000 0.61958  0.75736  0.86090  Biso   1.000  Ir
  Ir7      1.0000 0.61958  0.24264  0.86090  Biso   1.000  Ir
  Ir8      1.0000 0.38041  0.24264  0.13910  Biso   1.000  Ir
  Ir9      1.0000 0.40605  0.92260  0.22574  Biso   1.000  Ir
  Ir10     1.0000 0.59395  0.92260  0.77425  Biso   1.000  Ir
  Ir11     1.0000 0.59395  0.07740  0.77425  Biso   1.000  Ir
  Ir12     1.0000 0.40605  0.07740  0.22574  Biso   1.000  Ir
  Ir13     1.0000 0.76837  0.34055  0.67516  Biso   1.000  Ir
  Ir14     1.0000 0.23163  0.34055  0.32484  Biso   1.000  Ir
  Ir15     1.0000 0.23163  0.65945  0.32484  Biso   1.000  Ir
  Ir16     1.0000 0.76837  0.65945  0.67516  Biso   1.000  Ir
  Ir17     1.0000 0.88041  0.25737  0.13910  Biso   1.000  Ir
  Ir18     1.0000 0.11958  0.25737  0.86090  Biso   1.000  Ir
  Ir19     1.0000 0.11958  0.74264  0.86090  Biso   1.000  Ir
  Ir20     1.0000 0.88041  0.74264  0.13910  Biso   1.000  Ir
  Ir21     1.0000 0.90605  0.42260  0.22574  Biso   1.000  Ir
  Ir22     1.0000 0.09395  0.42260  0.77425  Biso   1.000  Ir
  Ir23     1.0000 0.09395  0.57740  0.77425  Biso   1.000  Ir
  Ir24     1.0000 0.90605  0.57740  0.22574  Biso   1.000  Ir
