data_image0
_cell_length_a       10.7642
_cell_length_b       10.344
_cell_length_c       12.6134
_cell_angle_alpha    90
_cell_angle_beta     89.9995
_cell_angle_gamma    90

_symmetry_space_group_name_H-M    "P 1"
_symmetry_int_tables_number       1

loop_
  _symmetry_equiv_pos_as_xyz
  'x, y, z'

loop_
  _atom_site_label
  _atom_site_occupancy
  _atom_site_fract_x
  _atom_site_fract_y
  _atom_site_fract_z
  _atom_site_thermal_displace_type
  _atom_site_B_iso_or_equiv
  _atom_site_type_symbol
  O1       1.0000 0.44096  0.74969  0.83267  Biso   1.000  O
  O2       1.0000 0.44096  0.25031  0.33267  Biso   1.000  O
  O3       1.0000 0.22957  0.04144  0.38152  Biso   1.000  O
  O4       1.0000 0.22957  0.95856  0.88152  Biso   1.000  O
  O5       1.0000 0.73026  0.04075  0.14202  Biso   1.000  O
  O6       1.0000 0.73026  0.95925  0.64202  Biso   1.000  O
  O7       1.0000 0.49962  0.51440  0.99333  Biso   1.000  O
  O8       1.0000 0.49962  0.48560  0.49333  Biso   1.000  O
  O9       1.0000 0.99438  0.51597  0.53021  Biso   1.000  O
  O10      1.0000 0.99438  0.48403  0.03021  Biso   1.000  O
  O11      1.0000 0.99907  0.98552  0.53291  Biso   1.000  O
  O12      1.0000 0.99907  0.01448  0.03291  Biso   1.000  O
  O13      1.0000 0.97003  0.54080  0.27836  Biso   1.000  O
  O14      1.0000 0.97003  0.45920  0.77836  Biso   1.000  O
  O15      1.0000 0.49567  0.98422  0.99544  Biso   1.000  O
  O16      1.0000 0.49567  0.01578  0.49544  Biso   1.000  O
  O17      1.0000 0.13013  0.75042  0.40657  Biso   1.000  O
  O18      1.0000 0.13013  0.24958  0.90657  Biso   1.000  O
  O19      1.0000 0.46539  0.54022  0.24492  Biso   1.000  O
  O20      1.0000 0.46539  0.45978  0.74492  Biso   1.000  O
  O21      1.0000 0.46910  0.04039  0.74725  Biso   1.000  O
  O22      1.0000 0.46910  0.95961  0.24725  Biso   1.000  O
  O23      1.0000 0.23029  0.45925  0.38516  Biso   1.000  O
  O24      1.0000 0.23029  0.54075  0.88516  Biso   1.000  O
  O25      1.0000 0.94107  0.75016  0.69370  Biso   1.000  O
  O26      1.0000 0.94107  0.24984  0.19370  Biso   1.000  O
  O27      1.0000 0.62992  0.74963  0.12004  Biso   1.000  O
  O28      1.0000 0.62992  0.25037  0.62004  Biso   1.000  O
  O29      1.0000 0.96613  0.04012  0.78130  Biso   1.000  O
  O30      1.0000 0.96613  0.95988  0.28130  Biso   1.000  O
  O31      1.0000 0.72927  0.45863  0.14576  Biso   1.000  O
  O32      1.0000 0.72927  0.54137  0.64576  Biso   1.000  O
  Ir1      1.0000 0.58121  0.43374  0.62630  Biso   1.000  Ir
  Ir2      1.0000 0.58121  0.56626  0.12630  Biso   1.000  Ir
  Ir3      1.0000 0.58154  0.06692  0.62654  Biso   1.000  Ir
  Ir4      1.0000 0.58154  0.93308  0.12654  Biso   1.000  Ir
  Ir5      1.0000 0.08151  0.43293  0.89972  Biso   1.000  Ir
  Ir6      1.0000 0.08151  0.56707  0.39972  Biso   1.000  Ir
  Ir7      1.0000 0.90895  0.56695  0.66152  Biso   1.000  Ir
  Ir8      1.0000 0.90895  0.43305  0.16152  Biso   1.000  Ir
  Ir9      1.0000 0.40907  0.93297  0.86473  Biso   1.000  Ir
  Ir10     1.0000 0.40907  0.06703  0.36473  Biso   1.000  Ir
  Ir11     1.0000 0.90935  0.06639  0.16199  Biso   1.000  Ir
  Ir12     1.0000 0.90935  0.93361  0.66199  Biso   1.000  Ir
  Ir13     1.0000 0.08141  0.06622  0.90026  Biso   1.000  Ir
  Ir14     1.0000 0.08141  0.93378  0.40026  Biso   1.000  Ir
  Ir15     1.0000 0.40927  0.56629  0.86452  Biso   1.000  Ir
  Ir16     1.0000 0.40927  0.43371  0.36452  Biso   1.000  Ir
