data_image0
_cell_length_a       21.4715
_cell_length_b       21.4716
_cell_length_c       12.8811
_cell_angle_alpha    90
_cell_angle_beta     90
_cell_angle_gamma    120

_symmetry_space_group_name_H-M    "P 1"
_symmetry_int_tables_number       1

loop_
  _symmetry_equiv_pos_as_xyz
  'x, y, z'

loop_
  _atom_site_label
  _atom_site_occupancy
  _atom_site_fract_x
  _atom_site_fract_y
  _atom_site_fract_z
  _atom_site_thermal_displace_type
  _atom_site_B_iso_or_equiv
  _atom_site_type_symbol
  O1       1.0000 0.41084  0.33993  0.81149  Biso   1.000  O
  O2       1.0000 0.66007  0.07091  0.81149  Biso   1.000  O
  O3       1.0000 0.92909  0.58916  0.81149  Biso   1.000  O
  O4       1.0000 0.58916  0.66007  0.81149  Biso   1.000  O
  O5       1.0000 0.33993  0.92909  0.81149  Biso   1.000  O
  O6       1.0000 0.07091  0.41084  0.81149  Biso   1.000  O
  O7       1.0000 0.58916  0.66007  0.18851  Biso   1.000  O
  O8       1.0000 0.33993  0.92909  0.18851  Biso   1.000  O
  O9       1.0000 0.07091  0.41084  0.18851  Biso   1.000  O
  O10      1.0000 0.41084  0.33993  0.18851  Biso   1.000  O
  O11      1.0000 0.66007  0.07091  0.18851  Biso   1.000  O
  O12      1.0000 0.92909  0.58916  0.18851  Biso   1.000  O
  O13      1.0000 0.44434  0.85963  0.83867  Biso   1.000  O
  O14      1.0000 0.14037  0.58471  0.83867  Biso   1.000  O
  O15      1.0000 0.41529  0.55566  0.83867  Biso   1.000  O
  O16      1.0000 0.55566  0.14037  0.83867  Biso   1.000  O
  O17      1.0000 0.85963  0.41529  0.83867  Biso   1.000  O
  O18      1.0000 0.58471  0.44434  0.83867  Biso   1.000  O
  O19      1.0000 0.55566  0.14037  0.16133  Biso   1.000  O
  O20      1.0000 0.85963  0.41529  0.16133  Biso   1.000  O
  O21      1.0000 0.58471  0.44434  0.16133  Biso   1.000  O
  O22      1.0000 0.44434  0.85963  0.16133  Biso   1.000  O
  O23      1.0000 0.14037  0.58471  0.16133  Biso   1.000  O
  O24      1.0000 0.41529  0.55566  0.16133  Biso   1.000  O
  O25      1.0000 0.64272  0.12144  0.00000  Biso   1.000  O
  O26      1.0000 0.87856  0.52128  0.00000  Biso   1.000  O
  O27      1.0000 0.47872  0.35728  0.00000  Biso   1.000  O
  O28      1.0000 0.35728  0.87856  0.00000  Biso   1.000  O
  O29      1.0000 0.12144  0.47872  0.00000  Biso   1.000  O
  O30      1.0000 0.52128  0.64272  0.00000  Biso   1.000  O
  O31      1.0000 0.54146  0.85903  0.00000  Biso   1.000  O
  O32      1.0000 0.14097  0.68243  0.00000  Biso   1.000  O
  O33      1.0000 0.31757  0.45854  0.00000  Biso   1.000  O
  O34      1.0000 0.45854  0.14097  0.00000  Biso   1.000  O
  O35      1.0000 0.85903  0.31757  0.00000  Biso   1.000  O
  O36      1.0000 0.68243  0.54146  0.00000  Biso   1.000  O
  O37      1.0000 0.73152  0.24540  0.14551  Biso   1.000  O
  O38      1.0000 0.75460  0.48613  0.14551  Biso   1.000  O
  O39      1.0000 0.51387  0.26848  0.14551  Biso   1.000  O
  O40      1.0000 0.26848  0.75460  0.14551  Biso   1.000  O
  O41      1.0000 0.24540  0.51387  0.14551  Biso   1.000  O
  O42      1.0000 0.48613  0.73152  0.14551  Biso   1.000  O
  O43      1.0000 0.26848  0.75460  0.85449  Biso   1.000  O
  O44      1.0000 0.24540  0.51387  0.85449  Biso   1.000  O
  O45      1.0000 0.48613  0.73152  0.85449  Biso   1.000  O
  O46      1.0000 0.73152  0.24540  0.85449  Biso   1.000  O
  O47      1.0000 0.75460  0.48613  0.85449  Biso   1.000  O
  O48      1.0000 0.51387  0.26848  0.85449  Biso   1.000  O
  O49      1.0000 0.61394  0.89842  0.18676  Biso   1.000  O
  O50      1.0000 0.10158  0.71551  0.18676  Biso   1.000  O
  O51      1.0000 0.28449  0.38606  0.18676  Biso   1.000  O
  O52      1.0000 0.38607  0.10158  0.18676  Biso   1.000  O
  O53      1.0000 0.89842  0.28449  0.18676  Biso   1.000  O
  O54      1.0000 0.71551  0.61394  0.18676  Biso   1.000  O
  O55      1.0000 0.38607  0.10158  0.81324  Biso   1.000  O
  O56      1.0000 0.89842  0.28449  0.81324  Biso   1.000  O
  O57      1.0000 0.71551  0.61394  0.81324  Biso   1.000  O
  O58      1.0000 0.61394  0.89842  0.81324  Biso   1.000  O
  O59      1.0000 0.10158  0.71551  0.81324  Biso   1.000  O
  O60      1.0000 0.28449  0.38606  0.81324  Biso   1.000  O
  O61      1.0000 0.74520  0.01350  0.30717  Biso   1.000  O
  O62      1.0000 0.98650  0.73169  0.30717  Biso   1.000  O
  O63      1.0000 0.26831  0.25481  0.30717  Biso   1.000  O
  O64      1.0000 0.25481  0.98650  0.30717  Biso   1.000  O
  O65      1.0000 0.01350  0.26831  0.30717  Biso   1.000  O
  O66      1.0000 0.73169  0.74520  0.30717  Biso   1.000  O
  O67      1.0000 0.25481  0.98650  0.69283  Biso   1.000  O
  O68      1.0000 0.01350  0.26831  0.69283  Biso   1.000  O
  O69      1.0000 0.73169  0.74520  0.69283  Biso   1.000  O
  O70      1.0000 0.74520  0.01350  0.69283  Biso   1.000  O
  O71      1.0000 0.98650  0.73169  0.69283  Biso   1.000  O
  O72      1.0000 0.26831  0.25481  0.69283  Biso   1.000  O
  O73      1.0000 0.77026  0.02180  0.89677  Biso   1.000  O
  O74      1.0000 0.97820  0.74846  0.89677  Biso   1.000  O
  O75      1.0000 0.25154  0.22974  0.89677  Biso   1.000  O
  O76      1.0000 0.22974  0.97820  0.89677  Biso   1.000  O
  O77      1.0000 0.02180  0.25154  0.89677  Biso   1.000  O
  O78      1.0000 0.74846  0.77026  0.89677  Biso   1.000  O
  O79      1.0000 0.22974  0.97820  0.10323  Biso   1.000  O
  O80      1.0000 0.02180  0.25154  0.10323  Biso   1.000  O
  O81      1.0000 0.74846  0.77026  0.10323  Biso   1.000  O
  O82      1.0000 0.77026  0.02180  0.10323  Biso   1.000  O
  O83      1.0000 0.97820  0.74846  0.10323  Biso   1.000  O
  O84      1.0000 0.25154  0.22974  0.10323  Biso   1.000  O
  O85      1.0000 0.79245  0.01117  0.50000  Biso   1.000  O
  O86      1.0000 0.98883  0.78128  0.50000  Biso   1.000  O
  O87      1.0000 0.21872  0.20755  0.50000  Biso   1.000  O
  O88      1.0000 0.20755  0.98883  0.50000  Biso   1.000  O
  O89      1.0000 0.01117  0.21872  0.50000  Biso   1.000  O
  O90      1.0000 0.78128  0.79245  0.50000  Biso   1.000  O
  O91      1.0000 0.82394  0.91869  0.64500  Biso   1.000  O
  O92      1.0000 0.08131  0.90525  0.64500  Biso   1.000  O
  O93      1.0000 0.09475  0.17606  0.64500  Biso   1.000  O
  O94      1.0000 0.17606  0.08131  0.64500  Biso   1.000  O
  O95      1.0000 0.91869  0.09475  0.64500  Biso   1.000  O
  O96      1.0000 0.90525  0.82394  0.64500  Biso   1.000  O
  O97      1.0000 0.17606  0.08131  0.35500  Biso   1.000  O
  O98      1.0000 0.91869  0.09475  0.35500  Biso   1.000  O
  O99      1.0000 0.90525  0.82394  0.35500  Biso   1.000  O
  O100     1.0000 0.82394  0.91869  0.35500  Biso   1.000  O
  O101     1.0000 0.08131  0.90525  0.35500  Biso   1.000  O
  O102     1.0000 0.09475  0.17606  0.35500  Biso   1.000  O
  O103     1.0000 0.82409  0.92296  0.00000  Biso   1.000  O
  O104     1.0000 0.07704  0.90113  0.00000  Biso   1.000  O
  O105     1.0000 0.09887  0.17591  0.00000  Biso   1.000  O
  O106     1.0000 0.17591  0.07704  0.00000  Biso   1.000  O
  O107     1.0000 0.92296  0.09887  0.00000  Biso   1.000  O
  O108     1.0000 0.90113  0.82409  0.00000  Biso   1.000  O
  Ir1      1.0000 0.17915  0.98457  0.00000  Biso   1.000  Ir
  Ir2      1.0000 0.01543  0.19458  0.00000  Biso   1.000  Ir
  Ir3      1.0000 0.80542  0.82085  0.00000  Biso   1.000  Ir
  Ir4      1.0000 0.82085  0.01543  0.00000  Biso   1.000  Ir
  Ir5      1.0000 0.98457  0.80542  0.00000  Biso   1.000  Ir
  Ir6      1.0000 0.19458  0.17915  0.00000  Biso   1.000  Ir
  Ir7      1.0000 0.18005  0.99058  0.37956  Biso   1.000  Ir
  Ir8      1.0000 0.00942  0.18947  0.37956  Biso   1.000  Ir
  Ir9      1.0000 0.81053  0.81995  0.37956  Biso   1.000  Ir
  Ir10     1.0000 0.81995  0.00942  0.37956  Biso   1.000  Ir
  Ir11     1.0000 0.99058  0.81053  0.37956  Biso   1.000  Ir
  Ir12     1.0000 0.18947  0.18005  0.37956  Biso   1.000  Ir
  Ir13     1.0000 0.81995  0.00942  0.62044  Biso   1.000  Ir
  Ir14     1.0000 0.99058  0.81053  0.62044  Biso   1.000  Ir
  Ir15     1.0000 0.18947  0.18005  0.62044  Biso   1.000  Ir
  Ir16     1.0000 0.18005  0.99058  0.62044  Biso   1.000  Ir
  Ir17     1.0000 0.00942  0.18947  0.62044  Biso   1.000  Ir
  Ir18     1.0000 0.81053  0.81995  0.62044  Biso   1.000  Ir
  Ir19     1.0000 0.30231  0.99881  0.19505  Biso   1.000  Ir
  Ir20     1.0000 0.00119  0.30350  0.19505  Biso   1.000  Ir
  Ir21     1.0000 0.69650  0.69769  0.19505  Biso   1.000  Ir
  Ir22     1.0000 0.69769  0.00119  0.19505  Biso   1.000  Ir
  Ir23     1.0000 0.99881  0.69650  0.19505  Biso   1.000  Ir
  Ir24     1.0000 0.30350  0.30231  0.19505  Biso   1.000  Ir
  Ir25     1.0000 0.69769  0.00119  0.80495  Biso   1.000  Ir
  Ir26     1.0000 0.99881  0.69650  0.80495  Biso   1.000  Ir
  Ir27     1.0000 0.30350  0.30231  0.80495  Biso   1.000  Ir
  Ir28     1.0000 0.30231  0.99881  0.80495  Biso   1.000  Ir
  Ir29     1.0000 0.00119  0.30350  0.80495  Biso   1.000  Ir
  Ir30     1.0000 0.69650  0.69769  0.80495  Biso   1.000  Ir
  Ir31     1.0000 0.16296  0.68409  0.12339  Biso   1.000  Ir
  Ir32     1.0000 0.31591  0.47887  0.12339  Biso   1.000  Ir
  Ir33     1.0000 0.52113  0.83704  0.12339  Biso   1.000  Ir
  Ir34     1.0000 0.83704  0.31591  0.12339  Biso   1.000  Ir
  Ir35     1.0000 0.68409  0.52113  0.12339  Biso   1.000  Ir
  Ir36     1.0000 0.47887  0.16296  0.12339  Biso   1.000  Ir
  Ir37     1.0000 0.83704  0.31591  0.87660  Biso   1.000  Ir
  Ir38     1.0000 0.68409  0.52113  0.87660  Biso   1.000  Ir
  Ir39     1.0000 0.47887  0.16296  0.87660  Biso   1.000  Ir
  Ir40     1.0000 0.16296  0.68409  0.87660  Biso   1.000  Ir
  Ir41     1.0000 0.31591  0.47887  0.87660  Biso   1.000  Ir
  Ir42     1.0000 0.52113  0.83704  0.87660  Biso   1.000  Ir
  Ir43     1.0000 0.14472  0.49674  0.12344  Biso   1.000  Ir
  Ir44     1.0000 0.50326  0.64798  0.12344  Biso   1.000  Ir
  Ir45     1.0000 0.35202  0.85528  0.12344  Biso   1.000  Ir
  Ir46     1.0000 0.85528  0.50326  0.12344  Biso   1.000  Ir
  Ir47     1.0000 0.49674  0.35202  0.12344  Biso   1.000  Ir
  Ir48     1.0000 0.64798  0.14472  0.12344  Biso   1.000  Ir
  Ir49     1.0000 0.85528  0.50326  0.87656  Biso   1.000  Ir
  Ir50     1.0000 0.49674  0.35202  0.87656  Biso   1.000  Ir
  Ir51     1.0000 0.64798  0.14472  0.87656  Biso   1.000  Ir
  Ir52     1.0000 0.14472  0.49674  0.87656  Biso   1.000  Ir
  Ir53     1.0000 0.50326  0.64798  0.87656  Biso   1.000  Ir
  Ir54     1.0000 0.35202  0.85528  0.87656  Biso   1.000  Ir
