data_image0
_cell_length_a       3.16322
_cell_length_b       13.021
_cell_length_c       43.4765
_cell_angle_alpha    90
_cell_angle_beta     90.7037
_cell_angle_gamma    90

_symmetry_space_group_name_H-M    "P 1"
_symmetry_int_tables_number       1

loop_
  _symmetry_equiv_pos_as_xyz
  'x, y, z'

loop_
  _atom_site_label
  _atom_site_occupancy
  _atom_site_fract_x
  _atom_site_fract_y
  _atom_site_fract_z
  _atom_site_thermal_displace_type
  _atom_site_B_iso_or_equiv
  _atom_site_type_symbol
  Ir1      1.0000 0.25001  0.25000  0.94697  Biso   1.000  Ir
  Ir2      1.0000 0.74999  0.75000  0.05303  Biso   1.000  Ir
  Ir3      1.0000 0.75002  0.25000  0.88318  Biso   1.000  Ir
  Ir4      1.0000 0.24998  0.75000  0.11682  Biso   1.000  Ir
  Ir5      1.0000 0.25002  0.25000  0.07467  Biso   1.000  Ir
  Ir6      1.0000 0.74998  0.75000  0.92533  Biso   1.000  Ir
  Ir7      1.0000 0.75003  0.25000  0.01078  Biso   1.000  Ir
  Ir8      1.0000 0.24997  0.75000  0.98922  Biso   1.000  Ir
  Ir9      1.0000 0.25002  0.25000  0.81956  Biso   1.000  Ir
  Ir10     1.0000 0.74998  0.75000  0.18044  Biso   1.000  Ir
  Ir11     1.0000 0.75001  0.25000  0.13864  Biso   1.000  Ir
  Ir12     1.0000 0.24999  0.75000  0.86135  Biso   1.000  Ir
  Ir13     1.0000 0.24999  0.25000  0.20307  Biso   1.000  Ir
  Ir14     1.0000 0.75001  0.75000  0.79693  Biso   1.000  Ir
  Ir15     1.0000 0.75000  0.25000  0.26279  Biso   1.000  Ir
  Ir16     1.0000 0.25000  0.75000  0.73721  Biso   1.000  Ir
  Ir17     1.0000 0.75003  0.25000  0.75572  Biso   1.000  Ir
  Ir18     1.0000 0.24997  0.75000  0.24428  Biso   1.000  Ir
  O1       1.0000 0.25002  0.13424  0.73317  Biso   1.000  O
  O2       1.0000 0.74998  0.63424  0.26683  Biso   1.000  O
  O3       1.0000 0.74998  0.86576  0.26683  Biso   1.000  O
  O4       1.0000 0.25002  0.36576  0.73317  Biso   1.000  O
  O5       1.0000 0.25001  0.87046  0.07441  Biso   1.000  O
  O6       1.0000 0.74999  0.37046  0.92559  Biso   1.000  O
  O7       1.0000 0.74999  0.12954  0.92559  Biso   1.000  O
  O8       1.0000 0.25001  0.62954  0.07441  Biso   1.000  O
  O9       1.0000 0.75000  0.36997  0.18124  Biso   1.000  O
  O10      1.0000 0.25000  0.86997  0.81876  Biso   1.000  O
  O11      1.0000 0.25000  0.63003  0.81876  Biso   1.000  O
  O12      1.0000 0.75000  0.13003  0.18124  Biso   1.000  O
  O13      1.0000 0.75000  0.87026  0.88277  Biso   1.000  O
  O14      1.0000 0.25000  0.37026  0.11723  Biso   1.000  O
  O15      1.0000 0.25000  0.12974  0.11723  Biso   1.000  O
  O16      1.0000 0.75000  0.62974  0.88277  Biso   1.000  O
  O17      1.0000 0.25000  0.12943  0.86181  Biso   1.000  O
  O18      1.0000 0.75000  0.62943  0.13819  Biso   1.000  O
  O19      1.0000 0.75000  0.87057  0.13819  Biso   1.000  O
  O20      1.0000 0.25000  0.37056  0.86181  Biso   1.000  O
  O21      1.0000 0.24999  0.87023  0.20195  Biso   1.000  O
  O22      1.0000 0.75001  0.37023  0.79805  Biso   1.000  O
  O23      1.0000 0.75001  0.12977  0.79805  Biso   1.000  O
  O24      1.0000 0.24999  0.62977  0.20195  Biso   1.000  O
  O25      1.0000 0.25001  0.37047  0.98941  Biso   1.000  O
  O26      1.0000 0.74999  0.87047  0.01059  Biso   1.000  O
  O27      1.0000 0.74999  0.62953  0.01059  Biso   1.000  O
  O28      1.0000 0.25001  0.12953  0.98941  Biso   1.000  O
  O29      1.0000 0.24999  0.12457  0.24580  Biso   1.000  O
  O30      1.0000 0.75001  0.62457  0.75420  Biso   1.000  O
  O31      1.0000 0.75001  0.87543  0.75420  Biso   1.000  O
  O32      1.0000 0.24999  0.37543  0.24580  Biso   1.000  O
  O33      1.0000 0.25000  0.87044  0.94674  Biso   1.000  O
  O34      1.0000 0.75000  0.37044  0.05326  Biso   1.000  O
  O35      1.0000 0.75000  0.12956  0.05326  Biso   1.000  O
  O36      1.0000 0.25000  0.62956  0.94674  Biso   1.000  O
