data_image0
_cell_length_a       24.2189
_cell_length_b       24.2189
_cell_length_c       24.2189
_cell_angle_alpha    90
_cell_angle_beta     90
_cell_angle_gamma    90

_symmetry_space_group_name_H-M    "P 1"
_symmetry_int_tables_number       1

loop_
  _symmetry_equiv_pos_as_xyz
  'x, y, z'

loop_
  _atom_site_label
  _atom_site_occupancy
  _atom_site_fract_x
  _atom_site_fract_y
  _atom_site_fract_z
  _atom_site_thermal_displace_type
  _atom_site_B_iso_or_equiv
  _atom_site_type_symbol
  O1       1.0000 0.24901  0.00000  0.00000  Biso   1.000  O
  O2       1.0000 0.75099  0.00000  0.00000  Biso   1.000  O
  O3       1.0000 0.00000  0.24901  0.00000  Biso   1.000  O
  O4       1.0000 0.00000  0.75099  0.00000  Biso   1.000  O
  O5       1.0000 0.00000  0.00000  0.24901  Biso   1.000  O
  O6       1.0000 0.00000  0.00000  0.75099  Biso   1.000  O
  O7       1.0000 0.25000  0.99901  0.75000  Biso   1.000  O
  O8       1.0000 0.75000  0.00099  0.75000  Biso   1.000  O
  O9       1.0000 0.49901  0.75000  0.75000  Biso   1.000  O
  O10      1.0000 0.00099  0.75000  0.75000  Biso   1.000  O
  O11      1.0000 0.25000  0.75000  0.50099  Biso   1.000  O
  O12      1.0000 0.25000  0.75000  0.99901  Biso   1.000  O
  O13      1.0000 0.92443  0.92443  0.83075  Biso   1.000  O
  O14      1.0000 0.07557  0.07557  0.83075  Biso   1.000  O
  O15      1.0000 0.07557  0.92443  0.16925  Biso   1.000  O
  O16      1.0000 0.92443  0.07557  0.16925  Biso   1.000  O
  O17      1.0000 0.83075  0.92443  0.92443  Biso   1.000  O
  O18      1.0000 0.83075  0.07557  0.07557  Biso   1.000  O
  O19      1.0000 0.16925  0.07557  0.92443  Biso   1.000  O
  O20      1.0000 0.16925  0.92443  0.07557  Biso   1.000  O
  O21      1.0000 0.92443  0.83075  0.92443  Biso   1.000  O
  O22      1.0000 0.07557  0.83075  0.07557  Biso   1.000  O
  O23      1.0000 0.92443  0.16925  0.07557  Biso   1.000  O
  O24      1.0000 0.07557  0.16925  0.92443  Biso   1.000  O
  O25      1.0000 0.67443  0.17442  0.91925  Biso   1.000  O
  O26      1.0000 0.32557  0.82557  0.91925  Biso   1.000  O
  O27      1.0000 0.17442  0.82557  0.58075  Biso   1.000  O
  O28      1.0000 0.82557  0.17442  0.58075  Biso   1.000  O
  O29      1.0000 0.67443  0.08075  0.82557  Biso   1.000  O
  O30      1.0000 0.82557  0.08075  0.67443  Biso   1.000  O
  O31      1.0000 0.32557  0.91925  0.82557  Biso   1.000  O
  O32      1.0000 0.17442  0.91925  0.67443  Biso   1.000  O
  O33      1.0000 0.58075  0.17442  0.82557  Biso   1.000  O
  O34      1.0000 0.08075  0.82557  0.67443  Biso   1.000  O
  O35      1.0000 0.91925  0.17442  0.67443  Biso   1.000  O
  O36      1.0000 0.41925  0.82557  0.82557  Biso   1.000  O
  O37      1.0000 0.29609  0.79610  0.79610  Biso   1.000  O
  O38      1.0000 0.70391  0.20391  0.79610  Biso   1.000  O
  O39      1.0000 0.20391  0.79610  0.70391  Biso   1.000  O
  O40      1.0000 0.79610  0.20391  0.70391  Biso   1.000  O
  O41      1.0000 0.04609  0.04609  0.95390  Biso   1.000  O
  O42      1.0000 0.95390  0.95390  0.95390  Biso   1.000  O
  O43      1.0000 0.04609  0.95390  0.04609  Biso   1.000  O
  O44      1.0000 0.95390  0.04609  0.04609  Biso   1.000  O
  O45      1.0000 0.12500  0.78234  0.46766  Biso   1.000  O
  O46      1.0000 0.87500  0.21766  0.46766  Biso   1.000  O
  O47      1.0000 0.37500  0.78234  0.03234  Biso   1.000  O
  O48      1.0000 0.62500  0.21766  0.03234  Biso   1.000  O
  O49      1.0000 0.46766  0.12500  0.78234  Biso   1.000  O
  O50      1.0000 0.96766  0.87500  0.71766  Biso   1.000  O
  O51      1.0000 0.53234  0.87500  0.78234  Biso   1.000  O
  O52      1.0000 0.03234  0.12500  0.71766  Biso   1.000  O
  O53      1.0000 0.78234  0.96766  0.62500  Biso   1.000  O
  O54      1.0000 0.71766  0.96766  0.87500  Biso   1.000  O
  O55      1.0000 0.28234  0.03234  0.87500  Biso   1.000  O
  O56      1.0000 0.21766  0.03234  0.62500  Biso   1.000  O
  O57      1.0000 0.62500  0.96766  0.78234  Biso   1.000  O
  O58      1.0000 0.37500  0.03234  0.78234  Biso   1.000  O
  O59      1.0000 0.87500  0.96766  0.71766  Biso   1.000  O
  O60      1.0000 0.12500  0.03234  0.71766  Biso   1.000  O
  O61      1.0000 0.78234  0.12500  0.46766  Biso   1.000  O
  O62      1.0000 0.28234  0.87500  0.03234  Biso   1.000  O
  O63      1.0000 0.21766  0.87500  0.46766  Biso   1.000  O
  O64      1.0000 0.71766  0.12500  0.03234  Biso   1.000  O
  O65      1.0000 0.96766  0.78234  0.62500  Biso   1.000  O
  O66      1.0000 0.53234  0.78234  0.87500  Biso   1.000  O
  O67      1.0000 0.46766  0.21766  0.87500  Biso   1.000  O
  O68      1.0000 0.03234  0.21766  0.62500  Biso   1.000  O
  O69      1.0000 0.24901  0.50000  0.50000  Biso   1.000  O
  O70      1.0000 0.75099  0.50000  0.50000  Biso   1.000  O
  O71      1.0000 0.00000  0.74901  0.50000  Biso   1.000  O
  O72      1.0000 0.00000  0.25099  0.50000  Biso   1.000  O
  O73      1.0000 0.00000  0.50000  0.74901  Biso   1.000  O
  O74      1.0000 0.00000  0.50000  0.25099  Biso   1.000  O
  O75      1.0000 0.25000  0.49901  0.25000  Biso   1.000  O
  O76      1.0000 0.75000  0.50099  0.25000  Biso   1.000  O
  O77      1.0000 0.49901  0.25000  0.25000  Biso   1.000  O
  O78      1.0000 0.00099  0.25000  0.25000  Biso   1.000  O
  O79      1.0000 0.25000  0.25000  0.00099  Biso   1.000  O
  O80      1.0000 0.25000  0.25000  0.49901  Biso   1.000  O
  O81      1.0000 0.92443  0.42443  0.33075  Biso   1.000  O
  O82      1.0000 0.07557  0.57557  0.33075  Biso   1.000  O
  O83      1.0000 0.07557  0.42443  0.66925  Biso   1.000  O
  O84      1.0000 0.92443  0.57557  0.66925  Biso   1.000  O
  O85      1.0000 0.83075  0.42443  0.42443  Biso   1.000  O
  O86      1.0000 0.83075  0.57557  0.57557  Biso   1.000  O
  O87      1.0000 0.16925  0.57557  0.42443  Biso   1.000  O
  O88      1.0000 0.16925  0.42443  0.57557  Biso   1.000  O
  O89      1.0000 0.92443  0.33075  0.42443  Biso   1.000  O
  O90      1.0000 0.07557  0.33075  0.57557  Biso   1.000  O
  O91      1.0000 0.92443  0.66925  0.57557  Biso   1.000  O
  O92      1.0000 0.07557  0.66925  0.42443  Biso   1.000  O
  O93      1.0000 0.67443  0.67443  0.41925  Biso   1.000  O
  O94      1.0000 0.32557  0.32557  0.41925  Biso   1.000  O
  O95      1.0000 0.17442  0.32557  0.08075  Biso   1.000  O
  O96      1.0000 0.82557  0.67443  0.08075  Biso   1.000  O
  O97      1.0000 0.67443  0.58075  0.32557  Biso   1.000  O
  O98      1.0000 0.82557  0.58075  0.17442  Biso   1.000  O
  O99      1.0000 0.32557  0.41925  0.32557  Biso   1.000  O
  O100     1.0000 0.17442  0.41925  0.17442  Biso   1.000  O
  O101     1.0000 0.58075  0.67443  0.32557  Biso   1.000  O
  O102     1.0000 0.08075  0.32557  0.17442  Biso   1.000  O
  O103     1.0000 0.91925  0.67443  0.17442  Biso   1.000  O
  O104     1.0000 0.41925  0.32557  0.32557  Biso   1.000  O
  O105     1.0000 0.29609  0.29609  0.29609  Biso   1.000  O
  O106     1.0000 0.70391  0.70391  0.29609  Biso   1.000  O
  O107     1.0000 0.20391  0.29609  0.20391  Biso   1.000  O
  O108     1.0000 0.79610  0.70391  0.20391  Biso   1.000  O
  O109     1.0000 0.04609  0.54610  0.45391  Biso   1.000  O
  O110     1.0000 0.95390  0.45391  0.45391  Biso   1.000  O
  O111     1.0000 0.04609  0.45391  0.54610  Biso   1.000  O
  O112     1.0000 0.95390  0.54610  0.54610  Biso   1.000  O
  O113     1.0000 0.12500  0.28234  0.96766  Biso   1.000  O
  O114     1.0000 0.87500  0.71766  0.96766  Biso   1.000  O
  O115     1.0000 0.37500  0.28234  0.53234  Biso   1.000  O
  O116     1.0000 0.62500  0.71766  0.53234  Biso   1.000  O
  O117     1.0000 0.46766  0.62500  0.28234  Biso   1.000  O
  O118     1.0000 0.96766  0.37500  0.21766  Biso   1.000  O
  O119     1.0000 0.53234  0.37500  0.28234  Biso   1.000  O
  O120     1.0000 0.03234  0.62500  0.21766  Biso   1.000  O
  O121     1.0000 0.78234  0.46766  0.12500  Biso   1.000  O
  O122     1.0000 0.71766  0.46766  0.37500  Biso   1.000  O
  O123     1.0000 0.28234  0.53234  0.37500  Biso   1.000  O
  O124     1.0000 0.21766  0.53234  0.12500  Biso   1.000  O
  O125     1.0000 0.62500  0.46766  0.28234  Biso   1.000  O
  O126     1.0000 0.37500  0.53234  0.28234  Biso   1.000  O
  O127     1.0000 0.87500  0.46766  0.21766  Biso   1.000  O
  O128     1.0000 0.12500  0.53234  0.21766  Biso   1.000  O
  O129     1.0000 0.78234  0.62500  0.96766  Biso   1.000  O
  O130     1.0000 0.28234  0.37500  0.53234  Biso   1.000  O
  O131     1.0000 0.21766  0.37500  0.96766  Biso   1.000  O
  O132     1.0000 0.71766  0.62500  0.53234  Biso   1.000  O
  O133     1.0000 0.96766  0.28234  0.12500  Biso   1.000  O
  O134     1.0000 0.53234  0.28234  0.37500  Biso   1.000  O
  O135     1.0000 0.46766  0.71766  0.37500  Biso   1.000  O
  O136     1.0000 0.03234  0.71766  0.12500  Biso   1.000  O
  O137     1.0000 0.74901  0.00000  0.50000  Biso   1.000  O
  O138     1.0000 0.25099  0.00000  0.50000  Biso   1.000  O
  O139     1.0000 0.50000  0.24901  0.50000  Biso   1.000  O
  O140     1.0000 0.50000  0.75099  0.50000  Biso   1.000  O
  O141     1.0000 0.50000  0.00000  0.74901  Biso   1.000  O
  O142     1.0000 0.50000  0.00000  0.25099  Biso   1.000  O
  O143     1.0000 0.75000  0.99901  0.25000  Biso   1.000  O
  O144     1.0000 0.25000  0.00099  0.25000  Biso   1.000  O
  O145     1.0000 0.99901  0.75000  0.25000  Biso   1.000  O
  O146     1.0000 0.50099  0.75000  0.25000  Biso   1.000  O
  O147     1.0000 0.75000  0.75000  0.00099  Biso   1.000  O
  O148     1.0000 0.75000  0.75000  0.49901  Biso   1.000  O
  O149     1.0000 0.42443  0.92443  0.33075  Biso   1.000  O
  O150     1.0000 0.57557  0.07557  0.33075  Biso   1.000  O
  O151     1.0000 0.57557  0.92443  0.66925  Biso   1.000  O
  O152     1.0000 0.42443  0.07557  0.66925  Biso   1.000  O
  O153     1.0000 0.33075  0.92443  0.42443  Biso   1.000  O
  O154     1.0000 0.33075  0.07557  0.57557  Biso   1.000  O
  O155     1.0000 0.66925  0.07557  0.42443  Biso   1.000  O
  O156     1.0000 0.66925  0.92443  0.57557  Biso   1.000  O
  O157     1.0000 0.42443  0.83075  0.42443  Biso   1.000  O
  O158     1.0000 0.57557  0.83075  0.57557  Biso   1.000  O
  O159     1.0000 0.42443  0.16925  0.57557  Biso   1.000  O
  O160     1.0000 0.57557  0.16925  0.42443  Biso   1.000  O
  O161     1.0000 0.17442  0.17442  0.41925  Biso   1.000  O
  O162     1.0000 0.82557  0.82557  0.41925  Biso   1.000  O
  O163     1.0000 0.67443  0.82557  0.08075  Biso   1.000  O
  O164     1.0000 0.32557  0.17442  0.08075  Biso   1.000  O
  O165     1.0000 0.17442  0.08075  0.32557  Biso   1.000  O
  O166     1.0000 0.32557  0.08075  0.17442  Biso   1.000  O
  O167     1.0000 0.82557  0.91925  0.32557  Biso   1.000  O
  O168     1.0000 0.67443  0.91925  0.17442  Biso   1.000  O
  O169     1.0000 0.08075  0.17442  0.32557  Biso   1.000  O
  O170     1.0000 0.58075  0.82557  0.17442  Biso   1.000  O
  O171     1.0000 0.41925  0.17442  0.17442  Biso   1.000  O
  O172     1.0000 0.91925  0.82557  0.32557  Biso   1.000  O
  O173     1.0000 0.79610  0.79610  0.29609  Biso   1.000  O
  O174     1.0000 0.20391  0.20391  0.29609  Biso   1.000  O
  O175     1.0000 0.70391  0.79610  0.20391  Biso   1.000  O
  O176     1.0000 0.29609  0.20391  0.20391  Biso   1.000  O
  O177     1.0000 0.54610  0.04609  0.45391  Biso   1.000  O
  O178     1.0000 0.45391  0.95390  0.45391  Biso   1.000  O
  O179     1.0000 0.54610  0.95390  0.54610  Biso   1.000  O
  O180     1.0000 0.45391  0.04609  0.54610  Biso   1.000  O
  O181     1.0000 0.62500  0.78234  0.96766  Biso   1.000  O
  O182     1.0000 0.37500  0.21766  0.96766  Biso   1.000  O
  O183     1.0000 0.87500  0.78234  0.53234  Biso   1.000  O
  O184     1.0000 0.12500  0.21766  0.53234  Biso   1.000  O
  O185     1.0000 0.96766  0.12500  0.28234  Biso   1.000  O
  O186     1.0000 0.46766  0.87500  0.21766  Biso   1.000  O
  O187     1.0000 0.03234  0.87500  0.28234  Biso   1.000  O
  O188     1.0000 0.53234  0.12500  0.21766  Biso   1.000  O
  O189     1.0000 0.28234  0.96766  0.12500  Biso   1.000  O
  O190     1.0000 0.21766  0.96766  0.37500  Biso   1.000  O
  O191     1.0000 0.78234  0.03234  0.37500  Biso   1.000  O
  O192     1.0000 0.71766  0.03234  0.12500  Biso   1.000  O
  O193     1.0000 0.12500  0.96766  0.28234  Biso   1.000  O
  O194     1.0000 0.87500  0.03234  0.28234  Biso   1.000  O
  O195     1.0000 0.37500  0.96766  0.21766  Biso   1.000  O
  O196     1.0000 0.62500  0.03234  0.21766  Biso   1.000  O
  O197     1.0000 0.28234  0.12500  0.96766  Biso   1.000  O
  O198     1.0000 0.78234  0.87500  0.53234  Biso   1.000  O
  O199     1.0000 0.71766  0.87500  0.96766  Biso   1.000  O
  O200     1.0000 0.21766  0.12500  0.53234  Biso   1.000  O
  O201     1.0000 0.46766  0.78234  0.12500  Biso   1.000  O
  O202     1.0000 0.03234  0.78234  0.37500  Biso   1.000  O
  O203     1.0000 0.96766  0.21766  0.37500  Biso   1.000  O
  O204     1.0000 0.53234  0.21766  0.12500  Biso   1.000  O
  O205     1.0000 0.74901  0.50000  0.00000  Biso   1.000  O
  O206     1.0000 0.25099  0.50000  0.00000  Biso   1.000  O
  O207     1.0000 0.50000  0.74901  0.00000  Biso   1.000  O
  O208     1.0000 0.50000  0.25099  0.00000  Biso   1.000  O
  O209     1.0000 0.50000  0.50000  0.24901  Biso   1.000  O
  O210     1.0000 0.50000  0.50000  0.75099  Biso   1.000  O
  O211     1.0000 0.75000  0.49901  0.75000  Biso   1.000  O
  O212     1.0000 0.25000  0.50099  0.75000  Biso   1.000  O
  O213     1.0000 0.99901  0.25000  0.75000  Biso   1.000  O
  O214     1.0000 0.50099  0.25000  0.75000  Biso   1.000  O
  O215     1.0000 0.75000  0.25000  0.50099  Biso   1.000  O
  O216     1.0000 0.75000  0.25000  0.99901  Biso   1.000  O
  O217     1.0000 0.42443  0.42443  0.83075  Biso   1.000  O
  O218     1.0000 0.57557  0.57557  0.83075  Biso   1.000  O
  O219     1.0000 0.57557  0.42443  0.16925  Biso   1.000  O
  O220     1.0000 0.42443  0.57557  0.16925  Biso   1.000  O
  O221     1.0000 0.33075  0.42443  0.92443  Biso   1.000  O
  O222     1.0000 0.33075  0.57557  0.07557  Biso   1.000  O
  O223     1.0000 0.66925  0.57557  0.92443  Biso   1.000  O
  O224     1.0000 0.66925  0.42443  0.07557  Biso   1.000  O
  O225     1.0000 0.42443  0.33075  0.92443  Biso   1.000  O
  O226     1.0000 0.57557  0.33075  0.07557  Biso   1.000  O
  O227     1.0000 0.42443  0.66925  0.07557  Biso   1.000  O
  O228     1.0000 0.57557  0.66925  0.92443  Biso   1.000  O
  O229     1.0000 0.17442  0.67443  0.91925  Biso   1.000  O
  O230     1.0000 0.82557  0.32557  0.91925  Biso   1.000  O
  O231     1.0000 0.67443  0.32557  0.58075  Biso   1.000  O
  O232     1.0000 0.32557  0.67443  0.58075  Biso   1.000  O
  O233     1.0000 0.17442  0.58075  0.82557  Biso   1.000  O
  O234     1.0000 0.32557  0.58075  0.67443  Biso   1.000  O
  O235     1.0000 0.82557  0.41925  0.82557  Biso   1.000  O
  O236     1.0000 0.67443  0.41925  0.67443  Biso   1.000  O
  O237     1.0000 0.08075  0.67443  0.82557  Biso   1.000  O
  O238     1.0000 0.58075  0.32557  0.67443  Biso   1.000  O
  O239     1.0000 0.41925  0.67443  0.67443  Biso   1.000  O
  O240     1.0000 0.91925  0.32557  0.82557  Biso   1.000  O
  O241     1.0000 0.79610  0.29609  0.79610  Biso   1.000  O
  O242     1.0000 0.20391  0.70391  0.79610  Biso   1.000  O
  O243     1.0000 0.70391  0.29609  0.70391  Biso   1.000  O
  O244     1.0000 0.29609  0.70391  0.70391  Biso   1.000  O
  O245     1.0000 0.54610  0.54610  0.95390  Biso   1.000  O
  O246     1.0000 0.45391  0.45391  0.95390  Biso   1.000  O
  O247     1.0000 0.54610  0.45391  0.04609  Biso   1.000  O
  O248     1.0000 0.45391  0.54610  0.04609  Biso   1.000  O
  O249     1.0000 0.62500  0.28234  0.46766  Biso   1.000  O
  O250     1.0000 0.37500  0.71766  0.46766  Biso   1.000  O
  O251     1.0000 0.87500  0.28234  0.03234  Biso   1.000  O
  O252     1.0000 0.12500  0.71766  0.03234  Biso   1.000  O
  O253     1.0000 0.96766  0.62500  0.78234  Biso   1.000  O
  O254     1.0000 0.46766  0.37500  0.71766  Biso   1.000  O
  O255     1.0000 0.03234  0.37500  0.78234  Biso   1.000  O
  O256     1.0000 0.53234  0.62500  0.71766  Biso   1.000  O
  O257     1.0000 0.28234  0.46766  0.62500  Biso   1.000  O
  O258     1.0000 0.21766  0.46766  0.87500  Biso   1.000  O
  O259     1.0000 0.78234  0.53234  0.87500  Biso   1.000  O
  O260     1.0000 0.71766  0.53234  0.62500  Biso   1.000  O
  O261     1.0000 0.12500  0.46766  0.78234  Biso   1.000  O
  O262     1.0000 0.87500  0.53234  0.78234  Biso   1.000  O
  O263     1.0000 0.37500  0.46766  0.71766  Biso   1.000  O
  O264     1.0000 0.62500  0.53234  0.71766  Biso   1.000  O
  O265     1.0000 0.28234  0.62500  0.46766  Biso   1.000  O
  O266     1.0000 0.78234  0.37500  0.03234  Biso   1.000  O
  O267     1.0000 0.71766  0.37500  0.46766  Biso   1.000  O
  O268     1.0000 0.21766  0.62500  0.03234  Biso   1.000  O
  O269     1.0000 0.46766  0.28234  0.62500  Biso   1.000  O
  O270     1.0000 0.03234  0.28234  0.87500  Biso   1.000  O
  O271     1.0000 0.96766  0.71766  0.87500  Biso   1.000  O
  O272     1.0000 0.53234  0.71766  0.62500  Biso   1.000  O
  Ir1      1.0000 0.69249  0.19249  0.99578  Biso   1.000  Ir
  Ir2      1.0000 0.30750  0.80751  0.99578  Biso   1.000  Ir
  Ir3      1.0000 0.80751  0.19249  0.50422  Biso   1.000  Ir
  Ir4      1.0000 0.19249  0.80751  0.50422  Biso   1.000  Ir
  Ir5      1.0000 0.99578  0.19249  0.69249  Biso   1.000  Ir
  Ir6      1.0000 0.49578  0.80751  0.80751  Biso   1.000  Ir
  Ir7      1.0000 0.00422  0.80751  0.69249  Biso   1.000  Ir
  Ir8      1.0000 0.50422  0.19249  0.80751  Biso   1.000  Ir
  Ir9      1.0000 0.19249  0.99578  0.69249  Biso   1.000  Ir
  Ir10     1.0000 0.30750  0.99578  0.80751  Biso   1.000  Ir
  Ir11     1.0000 0.69249  0.00422  0.80751  Biso   1.000  Ir
  Ir12     1.0000 0.80751  0.00422  0.69249  Biso   1.000  Ir
  Ir13     1.0000 0.94250  0.94250  0.75422  Biso   1.000  Ir
  Ir14     1.0000 0.05751  0.05751  0.75422  Biso   1.000  Ir
  Ir15     1.0000 0.94250  0.05751  0.24578  Biso   1.000  Ir
  Ir16     1.0000 0.05751  0.94250  0.24578  Biso   1.000  Ir
  Ir17     1.0000 0.94250  0.24578  0.05751  Biso   1.000  Ir
  Ir18     1.0000 0.05751  0.24578  0.94250  Biso   1.000  Ir
  Ir19     1.0000 0.05751  0.75422  0.05751  Biso   1.000  Ir
  Ir20     1.0000 0.94250  0.75422  0.94250  Biso   1.000  Ir
  Ir21     1.0000 0.24578  0.94250  0.05751  Biso   1.000  Ir
  Ir22     1.0000 0.24578  0.05751  0.94250  Biso   1.000  Ir
  Ir23     1.0000 0.75422  0.94250  0.94250  Biso   1.000  Ir
  Ir24     1.0000 0.75422  0.05751  0.05751  Biso   1.000  Ir
  Ir25     1.0000 0.34226  0.84226  0.84226  Biso   1.000  Ir
  Ir26     1.0000 0.65774  0.15774  0.84226  Biso   1.000  Ir
  Ir27     1.0000 0.15774  0.84226  0.65774  Biso   1.000  Ir
  Ir28     1.0000 0.84226  0.15774  0.65774  Biso   1.000  Ir
  Ir29     1.0000 0.09226  0.09226  0.90774  Biso   1.000  Ir
  Ir30     1.0000 0.90774  0.90774  0.90774  Biso   1.000  Ir
  Ir31     1.0000 0.09226  0.90774  0.09226  Biso   1.000  Ir
  Ir32     1.0000 0.90774  0.09226  0.09226  Biso   1.000  Ir
  Ir33     1.0000 0.00000  0.00000  0.00000  Biso   1.000  Ir
  Ir34     1.0000 0.25000  0.75000  0.75000  Biso   1.000  Ir
  Ir35     1.0000 0.69249  0.69249  0.49578  Biso   1.000  Ir
  Ir36     1.0000 0.30750  0.30750  0.49578  Biso   1.000  Ir
  Ir37     1.0000 0.80751  0.69249  0.00422  Biso   1.000  Ir
  Ir38     1.0000 0.19249  0.30750  0.00422  Biso   1.000  Ir
  Ir39     1.0000 0.99578  0.69249  0.19249  Biso   1.000  Ir
  Ir40     1.0000 0.49578  0.30750  0.30750  Biso   1.000  Ir
  Ir41     1.0000 0.00422  0.30750  0.19249  Biso   1.000  Ir
  Ir42     1.0000 0.50422  0.69249  0.30750  Biso   1.000  Ir
  Ir43     1.0000 0.19249  0.49578  0.19249  Biso   1.000  Ir
  Ir44     1.0000 0.30750  0.49578  0.30750  Biso   1.000  Ir
  Ir45     1.0000 0.69249  0.50422  0.30750  Biso   1.000  Ir
  Ir46     1.0000 0.80751  0.50422  0.19249  Biso   1.000  Ir
  Ir47     1.0000 0.94250  0.44250  0.25422  Biso   1.000  Ir
  Ir48     1.0000 0.05751  0.55751  0.25422  Biso   1.000  Ir
  Ir49     1.0000 0.94250  0.55751  0.74578  Biso   1.000  Ir
  Ir50     1.0000 0.05751  0.44250  0.74578  Biso   1.000  Ir
  Ir51     1.0000 0.94250  0.74578  0.55751  Biso   1.000  Ir
  Ir52     1.0000 0.05751  0.74578  0.44250  Biso   1.000  Ir
  Ir53     1.0000 0.05751  0.25422  0.55751  Biso   1.000  Ir
  Ir54     1.0000 0.94250  0.25422  0.44250  Biso   1.000  Ir
  Ir55     1.0000 0.24578  0.44250  0.55751  Biso   1.000  Ir
  Ir56     1.0000 0.24578  0.55751  0.44250  Biso   1.000  Ir
  Ir57     1.0000 0.75422  0.44250  0.44250  Biso   1.000  Ir
  Ir58     1.0000 0.75422  0.55751  0.55751  Biso   1.000  Ir
  Ir59     1.0000 0.34226  0.34226  0.34226  Biso   1.000  Ir
  Ir60     1.0000 0.65774  0.65774  0.34226  Biso   1.000  Ir
  Ir61     1.0000 0.15774  0.34226  0.15774  Biso   1.000  Ir
  Ir62     1.0000 0.84226  0.65774  0.15774  Biso   1.000  Ir
  Ir63     1.0000 0.09226  0.59226  0.40774  Biso   1.000  Ir
  Ir64     1.0000 0.90774  0.40774  0.40774  Biso   1.000  Ir
  Ir65     1.0000 0.09226  0.40774  0.59226  Biso   1.000  Ir
  Ir66     1.0000 0.90774  0.59226  0.59226  Biso   1.000  Ir
  Ir67     1.0000 0.00000  0.50000  0.50000  Biso   1.000  Ir
  Ir68     1.0000 0.25000  0.25000  0.25000  Biso   1.000  Ir
  Ir69     1.0000 0.19249  0.19249  0.49578  Biso   1.000  Ir
  Ir70     1.0000 0.80751  0.80751  0.49578  Biso   1.000  Ir
  Ir71     1.0000 0.30750  0.19249  0.00422  Biso   1.000  Ir
  Ir72     1.0000 0.69249  0.80751  0.00422  Biso   1.000  Ir
  Ir73     1.0000 0.49578  0.19249  0.19249  Biso   1.000  Ir
  Ir74     1.0000 0.99578  0.80751  0.30750  Biso   1.000  Ir
  Ir75     1.0000 0.50422  0.80751  0.19249  Biso   1.000  Ir
  Ir76     1.0000 0.00422  0.19249  0.30750  Biso   1.000  Ir
  Ir77     1.0000 0.69249  0.99578  0.19249  Biso   1.000  Ir
  Ir78     1.0000 0.80751  0.99578  0.30750  Biso   1.000  Ir
  Ir79     1.0000 0.19249  0.00422  0.30750  Biso   1.000  Ir
  Ir80     1.0000 0.30750  0.00422  0.19249  Biso   1.000  Ir
  Ir81     1.0000 0.44250  0.94250  0.25422  Biso   1.000  Ir
  Ir82     1.0000 0.55751  0.05751  0.25422  Biso   1.000  Ir
  Ir83     1.0000 0.44250  0.05751  0.74578  Biso   1.000  Ir
  Ir84     1.0000 0.55751  0.94250  0.74578  Biso   1.000  Ir
  Ir85     1.0000 0.44250  0.24578  0.55751  Biso   1.000  Ir
  Ir86     1.0000 0.55751  0.24578  0.44250  Biso   1.000  Ir
  Ir87     1.0000 0.55751  0.75422  0.55751  Biso   1.000  Ir
  Ir88     1.0000 0.44250  0.75422  0.44250  Biso   1.000  Ir
  Ir89     1.0000 0.74578  0.94250  0.55751  Biso   1.000  Ir
  Ir90     1.0000 0.74578  0.05751  0.44250  Biso   1.000  Ir
  Ir91     1.0000 0.25422  0.94250  0.44250  Biso   1.000  Ir
  Ir92     1.0000 0.25422  0.05751  0.55751  Biso   1.000  Ir
  Ir93     1.0000 0.84226  0.84226  0.34226  Biso   1.000  Ir
  Ir94     1.0000 0.15774  0.15774  0.34226  Biso   1.000  Ir
  Ir95     1.0000 0.65774  0.84226  0.15774  Biso   1.000  Ir
  Ir96     1.0000 0.34226  0.15774  0.15774  Biso   1.000  Ir
  Ir97     1.0000 0.59226  0.09226  0.40774  Biso   1.000  Ir
  Ir98     1.0000 0.40774  0.90774  0.40774  Biso   1.000  Ir
  Ir99     1.0000 0.59226  0.90774  0.59226  Biso   1.000  Ir
  Ir100    1.0000 0.40774  0.09226  0.59226  Biso   1.000  Ir
  Ir101    1.0000 0.50000  0.00000  0.50000  Biso   1.000  Ir
  Ir102    1.0000 0.75000  0.75000  0.25000  Biso   1.000  Ir
  Ir103    1.0000 0.19249  0.69249  0.99578  Biso   1.000  Ir
  Ir104    1.0000 0.80751  0.30750  0.99578  Biso   1.000  Ir
  Ir105    1.0000 0.30750  0.69249  0.50422  Biso   1.000  Ir
  Ir106    1.0000 0.69249  0.30750  0.50422  Biso   1.000  Ir
  Ir107    1.0000 0.49578  0.69249  0.69249  Biso   1.000  Ir
  Ir108    1.0000 0.99578  0.30750  0.80751  Biso   1.000  Ir
  Ir109    1.0000 0.50422  0.30750  0.69249  Biso   1.000  Ir
  Ir110    1.0000 0.00422  0.69249  0.80751  Biso   1.000  Ir
  Ir111    1.0000 0.69249  0.49578  0.69249  Biso   1.000  Ir
  Ir112    1.0000 0.80751  0.49578  0.80751  Biso   1.000  Ir
  Ir113    1.0000 0.19249  0.50422  0.80751  Biso   1.000  Ir
  Ir114    1.0000 0.30750  0.50422  0.69249  Biso   1.000  Ir
  Ir115    1.0000 0.44250  0.44250  0.75422  Biso   1.000  Ir
  Ir116    1.0000 0.55751  0.55751  0.75422  Biso   1.000  Ir
  Ir117    1.0000 0.44250  0.55751  0.24578  Biso   1.000  Ir
  Ir118    1.0000 0.55751  0.44250  0.24578  Biso   1.000  Ir
  Ir119    1.0000 0.44250  0.74578  0.05751  Biso   1.000  Ir
  Ir120    1.0000 0.55751  0.74578  0.94250  Biso   1.000  Ir
  Ir121    1.0000 0.55751  0.25422  0.05751  Biso   1.000  Ir
  Ir122    1.0000 0.44250  0.25422  0.94250  Biso   1.000  Ir
  Ir123    1.0000 0.74578  0.44250  0.05751  Biso   1.000  Ir
  Ir124    1.0000 0.74578  0.55751  0.94250  Biso   1.000  Ir
  Ir125    1.0000 0.25422  0.44250  0.94250  Biso   1.000  Ir
  Ir126    1.0000 0.25422  0.55751  0.05751  Biso   1.000  Ir
  Ir127    1.0000 0.84226  0.34226  0.84226  Biso   1.000  Ir
  Ir128    1.0000 0.15774  0.65774  0.84226  Biso   1.000  Ir
  Ir129    1.0000 0.65774  0.34226  0.65774  Biso   1.000  Ir
  Ir130    1.0000 0.34226  0.65774  0.65774  Biso   1.000  Ir
  Ir131    1.0000 0.59226  0.59226  0.90774  Biso   1.000  Ir
  Ir132    1.0000 0.40774  0.40774  0.90774  Biso   1.000  Ir
  Ir133    1.0000 0.59226  0.40774  0.09226  Biso   1.000  Ir
  Ir134    1.0000 0.40774  0.59226  0.09226  Biso   1.000  Ir
  Ir135    1.0000 0.50000  0.50000  0.00000  Biso   1.000  Ir
  Ir136    1.0000 0.75000  0.25000  0.75000  Biso   1.000  Ir
