data_image0
_cell_length_a       9.59566
_cell_length_b       5.13585
_cell_length_c       12.269
_cell_angle_alpha    90
_cell_angle_beta     111.404
_cell_angle_gamma    90

_symmetry_space_group_name_H-M    "P 1"
_symmetry_int_tables_number       1

loop_
  _symmetry_equiv_pos_as_xyz
  'x, y, z'

loop_
  _atom_site_label
  _atom_site_occupancy
  _atom_site_fract_x
  _atom_site_fract_y
  _atom_site_fract_z
  _atom_site_thermal_displace_type
  _atom_site_B_iso_or_equiv
  _atom_site_type_symbol
  Ir1      1.0000 0.00150  0.00000  0.74736  Biso   1.000  Ir
  Ir2      1.0000 0.66748  0.00000  0.33322  Biso   1.000  Ir
  Ir3      1.0000 0.66107  0.00000  0.83264  Biso   1.000  Ir
  Ir4      1.0000 0.00219  0.00000  0.00293  Biso   1.000  Ir
  Ir5      1.0000 0.88805  0.50000  0.86125  Biso   1.000  Ir
  Ir6      1.0000 0.55385  0.50000  0.44706  Biso   1.000  Ir
  Ir7      1.0000 0.55352  0.50000  0.19146  Biso   1.000  Ir
  Ir8      1.0000 0.89458  0.50000  0.36179  Biso   1.000  Ir
  O1       1.0000 0.66735  0.00000  0.58533  Biso   1.000  O
  O2       1.0000 0.33129  0.00000  0.16684  Biso   1.000  O
  O3       1.0000 0.33118  0.00000  0.91636  Biso   1.000  O
  O4       1.0000 0.00172  0.00000  0.50133  Biso   1.000  O
  O5       1.0000 0.66819  0.00000  0.08189  Biso   1.000  O
  O6       1.0000 0.33293  0.00000  0.66662  Biso   1.000  O
  O7       1.0000 0.00217  0.00000  0.24939  Biso   1.000  O
  O8       1.0000 0.33100  0.00000  0.41599  Biso   1.000  O
  O9       1.0000 0.22447  0.50000  0.02762  Biso   1.000  O
  O10      1.0000 0.88804  0.50000  0.60914  Biso   1.000  O
  O11      1.0000 0.22455  0.50000  0.77837  Biso   1.000  O
  O12      1.0000 0.55328  0.50000  0.94493  Biso   1.000  O
  O13      1.0000 0.22251  0.50000  0.52799  Biso   1.000  O
  O14      1.0000 0.88757  0.50000  0.11257  Biso   1.000  O
  O15      1.0000 0.55359  0.50000  0.69324  Biso   1.000  O
  O16      1.0000 0.22440  0.50000  0.27799  Biso   1.000  O
