data_image0
_cell_length_a       14.5439
_cell_length_b       12.2208
_cell_length_c       9.9643
_cell_angle_alpha    90
_cell_angle_beta     110.029
_cell_angle_gamma    90

_symmetry_space_group_name_H-M    "P 1"
_symmetry_int_tables_number       1

loop_
  _symmetry_equiv_pos_as_xyz
  'x, y, z'

loop_
  _atom_site_label
  _atom_site_occupancy
  _atom_site_fract_x
  _atom_site_fract_y
  _atom_site_fract_z
  _atom_site_thermal_displace_type
  _atom_site_B_iso_or_equiv
  _atom_site_type_symbol
  O1       1.0000 0.17784  0.46835  0.37559  Biso   1.000  O
  O2       1.0000 0.82216  0.46835  0.12441  Biso   1.000  O
  O3       1.0000 0.82216  0.53165  0.62441  Biso   1.000  O
  O4       1.0000 0.17784  0.53165  0.87559  Biso   1.000  O
  O5       1.0000 0.09385  0.75991  0.62438  Biso   1.000  O
  O6       1.0000 0.90616  0.75991  0.87562  Biso   1.000  O
  O7       1.0000 0.90616  0.24009  0.37562  Biso   1.000  O
  O8       1.0000 0.09385  0.24009  0.12438  Biso   1.000  O
  O9       1.0000 0.94817  0.46809  0.37581  Biso   1.000  O
  O10      1.0000 0.05183  0.46809  0.12419  Biso   1.000  O
  O11      1.0000 0.05183  0.53191  0.62419  Biso   1.000  O
  O12      1.0000 0.94817  0.53191  0.87581  Biso   1.000  O
  O13      1.0000 0.71947  0.49010  0.87562  Biso   1.000  O
  O14      1.0000 0.28053  0.49010  0.62438  Biso   1.000  O
  O15      1.0000 0.28053  0.50990  0.12438  Biso   1.000  O
  O16      1.0000 0.71947  0.50990  0.37562  Biso   1.000  O
  O17      1.0000 0.59400  0.51034  0.12418  Biso   1.000  O
  O18      1.0000 0.40600  0.51034  0.37582  Biso   1.000  O
  O19      1.0000 0.40600  0.48966  0.87582  Biso   1.000  O
  O20      1.0000 0.59400  0.48966  0.62418  Biso   1.000  O
  O21      1.0000 0.17762  0.78192  0.37581  Biso   1.000  O
  O22      1.0000 0.82239  0.78192  0.12419  Biso   1.000  O
  O23      1.0000 0.82239  0.21808  0.62419  Biso   1.000  O
  O24      1.0000 0.17762  0.21808  0.87581  Biso   1.000  O
  O25      1.0000 0.94771  0.21836  0.87558  Biso   1.000  O
  O26      1.0000 0.05229  0.21836  0.62442  Biso   1.000  O
  O27      1.0000 0.05229  0.78164  0.12442  Biso   1.000  O
  O28      1.0000 0.94771  0.78164  0.37558  Biso   1.000  O
  O29      1.0000 0.78019  0.76031  0.62419  Biso   1.000  O
  O30      1.0000 0.21981  0.76031  0.87581  Biso   1.000  O
  O31      1.0000 0.21981  0.23969  0.37581  Biso   1.000  O
  O32      1.0000 0.78019  0.23969  0.12419  Biso   1.000  O
  O33      1.0000 0.67784  0.96835  0.37559  Biso   1.000  O
  O34      1.0000 0.32216  0.96835  0.12441  Biso   1.000  O
  O35      1.0000 0.32216  0.03166  0.62441  Biso   1.000  O
  O36      1.0000 0.67784  0.03166  0.87559  Biso   1.000  O
  O37      1.0000 0.59385  0.25991  0.62438  Biso   1.000  O
  O38      1.0000 0.40615  0.25991  0.87562  Biso   1.000  O
  O39      1.0000 0.40615  0.74009  0.37562  Biso   1.000  O
  O40      1.0000 0.59385  0.74009  0.12438  Biso   1.000  O
  O41      1.0000 0.44817  0.96809  0.37581  Biso   1.000  O
  O42      1.0000 0.55183  0.96809  0.12419  Biso   1.000  O
  O43      1.0000 0.55183  0.03191  0.62419  Biso   1.000  O
  O44      1.0000 0.44817  0.03191  0.87581  Biso   1.000  O
  O45      1.0000 0.21947  0.99010  0.87562  Biso   1.000  O
  O46      1.0000 0.78053  0.99010  0.62438  Biso   1.000  O
  O47      1.0000 0.78053  0.00990  0.12438  Biso   1.000  O
  O48      1.0000 0.21947  0.00990  0.37562  Biso   1.000  O
  O49      1.0000 0.09400  0.01034  0.12418  Biso   1.000  O
  O50      1.0000 0.90600  0.01034  0.37582  Biso   1.000  O
  O51      1.0000 0.90600  0.98966  0.87582  Biso   1.000  O
  O52      1.0000 0.09400  0.98966  0.62418  Biso   1.000  O
  O53      1.0000 0.67762  0.28192  0.37581  Biso   1.000  O
  O54      1.0000 0.32239  0.28192  0.12419  Biso   1.000  O
  O55      1.0000 0.32239  0.71808  0.62419  Biso   1.000  O
  O56      1.0000 0.67762  0.71808  0.87581  Biso   1.000  O
  O57      1.0000 0.44771  0.71836  0.87558  Biso   1.000  O
  O58      1.0000 0.55229  0.71836  0.62442  Biso   1.000  O
  O59      1.0000 0.55229  0.28164  0.12442  Biso   1.000  O
  O60      1.0000 0.44771  0.28164  0.37558  Biso   1.000  O
  O61      1.0000 0.28019  0.26031  0.62419  Biso   1.000  O
  O62      1.0000 0.71981  0.26031  0.87581  Biso   1.000  O
  O63      1.0000 0.71981  0.73969  0.37581  Biso   1.000  O
  O64      1.0000 0.28019  0.73969  0.12419  Biso   1.000  O
  Ir1      1.0000 0.10992  0.37500  0.96986  Biso   1.000  Ir
  Ir2      1.0000 0.89008  0.37500  0.53013  Biso   1.000  Ir
  Ir3      1.0000 0.89008  0.62500  0.03013  Biso   1.000  Ir
  Ir4      1.0000 0.10992  0.62500  0.46986  Biso   1.000  Ir
  Ir5      1.0000 0.00000  0.07340  0.75000  Biso   1.000  Ir
  Ir6      1.0000 0.00000  0.92660  0.25000  Biso   1.000  Ir
  Ir7      1.0000 0.00000  0.67660  0.75000  Biso   1.000  Ir
  Ir8      1.0000 0.00000  0.32340  0.25000  Biso   1.000  Ir
  Ir9      1.0000 0.19850  0.37500  0.75001  Biso   1.000  Ir
  Ir10     1.0000 0.80150  0.37500  0.74999  Biso   1.000  Ir
  Ir11     1.0000 0.80150  0.62499  0.24999  Biso   1.000  Ir
  Ir12     1.0000 0.19850  0.62499  0.25001  Biso   1.000  Ir
  Ir13     1.0000 0.10995  0.12499  0.46992  Biso   1.000  Ir
  Ir14     1.0000 0.89005  0.12499  0.03009  Biso   1.000  Ir
  Ir15     1.0000 0.89005  0.87501  0.53009  Biso   1.000  Ir
  Ir16     1.0000 0.10995  0.87501  0.96991  Biso   1.000  Ir
  Ir17     1.0000 0.60992  0.87500  0.96986  Biso   1.000  Ir
  Ir18     1.0000 0.39008  0.87500  0.53013  Biso   1.000  Ir
  Ir19     1.0000 0.39008  0.12500  0.03013  Biso   1.000  Ir
  Ir20     1.0000 0.60992  0.12500  0.46986  Biso   1.000  Ir
  Ir21     1.0000 0.50000  0.57340  0.75000  Biso   1.000  Ir
  Ir22     1.0000 0.50000  0.42660  0.25000  Biso   1.000  Ir
  Ir23     1.0000 0.50000  0.17660  0.75000  Biso   1.000  Ir
  Ir24     1.0000 0.50000  0.82340  0.25000  Biso   1.000  Ir
  Ir25     1.0000 0.69850  0.87501  0.75001  Biso   1.000  Ir
  Ir26     1.0000 0.30150  0.87501  0.74999  Biso   1.000  Ir
  Ir27     1.0000 0.30150  0.12499  0.24999  Biso   1.000  Ir
  Ir28     1.0000 0.69850  0.12499  0.25001  Biso   1.000  Ir
  Ir29     1.0000 0.60995  0.62499  0.46992  Biso   1.000  Ir
  Ir30     1.0000 0.39005  0.62499  0.03009  Biso   1.000  Ir
  Ir31     1.0000 0.39005  0.37501  0.53009  Biso   1.000  Ir
  Ir32     1.0000 0.60995  0.37501  0.96991  Biso   1.000  Ir
