data_image0
_cell_length_a       5.36146
_cell_length_b       5.36146
_cell_length_c       83.0286
_cell_angle_alpha    90
_cell_angle_beta     90
_cell_angle_gamma    120

_symmetry_space_group_name_H-M    "P 1"
_symmetry_int_tables_number       1

loop_
  _symmetry_equiv_pos_as_xyz
  'x, y, z'

loop_
  _atom_site_label
  _atom_site_occupancy
  _atom_site_fract_x
  _atom_site_fract_y
  _atom_site_fract_z
  _atom_site_thermal_displace_type
  _atom_site_B_iso_or_equiv
  _atom_site_type_symbol
  Ir1      1.0000 0.33333  0.66667  0.60419  Biso   1.000  Ir
  Ir2      1.0000 0.00000  0.00000  0.52086  Biso   1.000  Ir
  Ir3      1.0000 0.66667  0.33333  0.43753  Biso   1.000  Ir
  Ir4      1.0000 0.00000  0.00000  0.35419  Biso   1.000  Ir
  Ir5      1.0000 0.00000  0.00000  0.93753  Biso   1.000  Ir
  Ir6      1.0000 0.66667  0.33333  0.85419  Biso   1.000  Ir
  Ir7      1.0000 0.33333  0.66667  0.77086  Biso   1.000  Ir
  Ir8      1.0000 0.66667  0.33333  0.68752  Biso   1.000  Ir
  Ir9      1.0000 0.66667  0.33333  0.27086  Biso   1.000  Ir
  Ir10     1.0000 0.33333  0.66667  0.18753  Biso   1.000  Ir
  Ir11     1.0000 0.00000  0.00000  0.10420  Biso   1.000  Ir
  Ir12     1.0000 0.33333  0.66667  0.02086  Biso   1.000  Ir
  O1       1.0000 0.33333  0.66667  0.66663  Biso   1.000  O
  O2       1.0000 0.00000  0.00000  0.62510  Biso   1.000  O
  O3       1.0000 0.66667  0.33333  0.58330  Biso   1.000  O
  O4       1.0000 0.33333  0.66667  0.54176  Biso   1.000  O
  O5       1.0000 0.66667  0.33333  0.49997  Biso   1.000  O
  O6       1.0000 0.33333  0.66667  0.45843  Biso   1.000  O
  O7       1.0000 0.00000  0.00000  0.41663  Biso   1.000  O
  O8       1.0000 0.33333  0.66667  0.37510  Biso   1.000  O
  O9       1.0000 0.00000  0.00000  0.99997  Biso   1.000  O
  O10      1.0000 0.66667  0.33333  0.95843  Biso   1.000  O
  O11      1.0000 0.33333  0.66667  0.91663  Biso   1.000  O
  O12      1.0000 0.00000  0.00000  0.87509  Biso   1.000  O
  O13      1.0000 0.33333  0.66667  0.83330  Biso   1.000  O
  O14      1.0000 0.00000  0.00000  0.79176  Biso   1.000  O
  O15      1.0000 0.66667  0.33333  0.74996  Biso   1.000  O
  O16      1.0000 0.00000  0.00000  0.70843  Biso   1.000  O
  O17      1.0000 0.66667  0.33333  0.33330  Biso   1.000  O
  O18      1.0000 0.33333  0.66667  0.29176  Biso   1.000  O
  O19      1.0000 0.00000  0.00000  0.24996  Biso   1.000  O
  O20      1.0000 0.66667  0.33333  0.20842  Biso   1.000  O
  O21      1.0000 0.00000  0.00000  0.16664  Biso   1.000  O
  O22      1.0000 0.66667  0.33333  0.12510  Biso   1.000  O
  O23      1.0000 0.33333  0.66667  0.08330  Biso   1.000  O
  O24      1.0000 0.66667  0.33333  0.04176  Biso   1.000  O
