data_image0
_cell_length_a       6.05333
_cell_length_b       5.62056
_cell_length_c       9.96006
_cell_angle_alpha    90
_cell_angle_beta     106.66
_cell_angle_gamma    90

_symmetry_space_group_name_H-M    "P 1"
_symmetry_int_tables_number       1

loop_
  _symmetry_equiv_pos_as_xyz
  'x, y, z'

loop_
  _atom_site_label
  _atom_site_occupancy
  _atom_site_fract_x
  _atom_site_fract_y
  _atom_site_fract_z
  _atom_site_thermal_displace_type
  _atom_site_B_iso_or_equiv
  _atom_site_type_symbol
  O1       1.0000 0.00000  0.31925  0.50000  Biso   1.000  O
  O2       1.0000 0.10728  0.77836  0.70360  Biso   1.000  O
  O3       1.0000 0.89272  0.77836  0.29640  Biso   1.000  O
  O4       1.0000 0.61403  0.22102  0.70836  Biso   1.000  O
  O5       1.0000 0.38597  0.22102  0.29164  Biso   1.000  O
  O6       1.0000 0.24324  0.29234  0.87183  Biso   1.000  O
  O7       1.0000 0.75676  0.29234  0.12817  Biso   1.000  O
  O8       1.0000 0.00000  0.83706  0.00000  Biso   1.000  O
  Ir1      1.0000 0.26123  0.41689  0.69397  Biso   1.000  Ir
  Ir2      1.0000 0.73877  0.41689  0.30603  Biso   1.000  Ir
  Ir3      1.0000 0.96794  0.01007  0.82016  Biso   1.000  Ir
  Ir4      1.0000 0.03206  0.01007  0.17984  Biso   1.000  Ir
