data_image0
_cell_length_a       11.885
_cell_length_b       12.3692
_cell_length_c       19.0939
_cell_angle_alpha    84.536
_cell_angle_beta     77.2959
_cell_angle_gamma    63.7291

_symmetry_space_group_name_H-M    "P 1"
_symmetry_int_tables_number       1

loop_
  _symmetry_equiv_pos_as_xyz
  'x, y, z'

loop_
  _atom_site_label
  _atom_site_occupancy
  _atom_site_fract_x
  _atom_site_fract_y
  _atom_site_fract_z
  _atom_site_thermal_displace_type
  _atom_site_B_iso_or_equiv
  _atom_site_type_symbol
  O1       1.0000 0.46927  0.28081  0.18734  Biso   1.000  O
  O2       1.0000 0.53073  0.71919  0.81266  Biso   1.000  O
  O3       1.0000 0.50000  0.00000  0.00000  Biso   1.000  O
  O4       1.0000 0.17230  0.67279  0.74988  Biso   1.000  O
  O5       1.0000 0.82770  0.32721  0.25012  Biso   1.000  O
  O6       1.0000 0.78439  0.28450  0.75014  Biso   1.000  O
  O7       1.0000 0.21561  0.71550  0.24986  Biso   1.000  O
  O8       1.0000 0.07740  0.57751  0.75016  Biso   1.000  O
  O9       1.0000 0.92260  0.42249  0.24984  Biso   1.000  O
  O10      1.0000 0.78112  0.96880  0.31272  Biso   1.000  O
  O11      1.0000 0.21888  0.03120  0.68728  Biso   1.000  O
  O12      1.0000 0.46600  0.96511  0.74977  Biso   1.000  O
  O13      1.0000 0.53399  0.03489  0.25023  Biso   1.000  O
  O14      1.0000 0.50000  0.00000  0.50000  Biso   1.000  O
  O15      1.0000 0.00000  0.00000  0.00000  Biso   1.000  O
  O16      1.0000 0.50000  0.50000  0.50000  Biso   1.000  O
  Ir1      1.0000 0.64254  0.97560  0.05121  Biso   1.000  Ir
  Ir2      1.0000 0.35746  0.02440  0.94879  Biso   1.000  Ir
  Ir3      1.0000 0.47536  0.14274  0.44898  Biso   1.000  Ir
  Ir4      1.0000 0.52464  0.85726  0.55102  Biso   1.000  Ir
  Ir5      1.0000 0.29604  0.82206  0.94891  Biso   1.000  Ir
  Ir6      1.0000 0.70396  0.17794  0.05109  Biso   1.000  Ir
  Ir7      1.0000 0.32218  0.79596  0.55115  Biso   1.000  Ir
  Ir8      1.0000 0.67782  0.20404  0.44885  Biso   1.000  Ir
