data_image0
_cell_length_a       6.10009
_cell_length_b       10.6389
_cell_length_c       10.6194
_cell_angle_alpha    90
_cell_angle_beta     90
_cell_angle_gamma    90

_symmetry_space_group_name_H-M    "P 1"
_symmetry_int_tables_number       1

loop_
  _symmetry_equiv_pos_as_xyz
  'x, y, z'

loop_
  _atom_site_label
  _atom_site_occupancy
  _atom_site_fract_x
  _atom_site_fract_y
  _atom_site_fract_z
  _atom_site_thermal_displace_type
  _atom_site_B_iso_or_equiv
  _atom_site_type_symbol
  O1       1.0000 0.98329  0.20324  0.00000  Biso   1.000  O
  O2       1.0000 0.01671  0.79676  0.00000  Biso   1.000  O
  O3       1.0000 0.51671  0.70324  0.50000  Biso   1.000  O
  O4       1.0000 0.48329  0.29676  0.50000  Biso   1.000  O
  O5       1.0000 0.00000  0.00000  0.22658  Biso   1.000  O
  O6       1.0000 0.50000  0.50000  0.27342  Biso   1.000  O
  O7       1.0000 0.00000  0.00000  0.77342  Biso   1.000  O
  O8       1.0000 0.50000  0.50000  0.72658  Biso   1.000  O
  O9       1.0000 0.87075  0.71097  0.72384  Biso   1.000  O
  O10      1.0000 0.12925  0.28903  0.72384  Biso   1.000  O
  O11      1.0000 0.62925  0.21097  0.77616  Biso   1.000  O
  O12      1.0000 0.37075  0.78903  0.77616  Biso   1.000  O
  O13      1.0000 0.12925  0.28903  0.27616  Biso   1.000  O
  O14      1.0000 0.87075  0.71097  0.27616  Biso   1.000  O
  O15      1.0000 0.37075  0.78903  0.22384  Biso   1.000  O
  O16      1.0000 0.62925  0.21097  0.22384  Biso   1.000  O
  Ir1      1.0000 0.06343  0.82478  0.18052  Biso   1.000  Ir
  Ir2      1.0000 0.93657  0.17522  0.18052  Biso   1.000  Ir
  Ir3      1.0000 0.43657  0.32478  0.31948  Biso   1.000  Ir
  Ir4      1.0000 0.56343  0.67522  0.31948  Biso   1.000  Ir
  Ir5      1.0000 0.93657  0.17522  0.81948  Biso   1.000  Ir
  Ir6      1.0000 0.06343  0.82478  0.81948  Biso   1.000  Ir
  Ir7      1.0000 0.56343  0.67522  0.68052  Biso   1.000  Ir
  Ir8      1.0000 0.43657  0.32478  0.68052  Biso   1.000  Ir
