data_image0
_cell_length_a       9.50327
_cell_length_b       23.8709
_cell_length_c       11.5025
_cell_angle_alpha    90
_cell_angle_beta     103.812
_cell_angle_gamma    90

_symmetry_space_group_name_H-M    "P 1"
_symmetry_int_tables_number       1

loop_
  _symmetry_equiv_pos_as_xyz
  'x, y, z'

loop_
  _atom_site_label
  _atom_site_occupancy
  _atom_site_fract_x
  _atom_site_fract_y
  _atom_site_fract_z
  _atom_site_thermal_displace_type
  _atom_site_B_iso_or_equiv
  _atom_site_type_symbol
  O1       1.0000 0.41919  0.99476  0.78996  Biso   1.000  O
  O2       1.0000 0.58081  0.49476  0.21004  Biso   1.000  O
  O3       1.0000 0.58081  0.00524  0.21004  Biso   1.000  O
  O4       1.0000 0.41919  0.50524  0.78996  Biso   1.000  O
  O5       1.0000 0.30416  0.25000  0.66651  Biso   1.000  O
  O6       1.0000 0.69584  0.75000  0.33349  Biso   1.000  O
  O7       1.0000 0.44255  0.12520  0.25528  Biso   1.000  O
  O8       1.0000 0.55745  0.62520  0.74472  Biso   1.000  O
  O9       1.0000 0.55745  0.87480  0.74472  Biso   1.000  O
  O10      1.0000 0.44255  0.37480  0.25528  Biso   1.000  O
  O11      1.0000 0.86859  0.44628  0.58905  Biso   1.000  O
  O12      1.0000 0.13141  0.94628  0.41095  Biso   1.000  O
  O13      1.0000 0.13141  0.55372  0.41095  Biso   1.000  O
  O14      1.0000 0.86859  0.05372  0.58905  Biso   1.000  O
  O15      1.0000 0.50758  0.25000  0.34049  Biso   1.000  O
  O16      1.0000 0.49242  0.75000  0.65951  Biso   1.000  O
  O17      1.0000 0.25019  0.84514  0.57874  Biso   1.000  O
  O18      1.0000 0.74981  0.34514  0.42126  Biso   1.000  O
  O19      1.0000 0.74981  0.15486  0.42126  Biso   1.000  O
  O20      1.0000 0.25019  0.65486  0.57874  Biso   1.000  O
  O21      1.0000 0.66154  0.62539  0.24182  Biso   1.000  O
  O22      1.0000 0.33846  0.12539  0.75818  Biso   1.000  O
  O23      1.0000 0.33846  0.37461  0.75818  Biso   1.000  O
  O24      1.0000 0.66154  0.87461  0.24182  Biso   1.000  O
  O25      1.0000 0.91243  0.65566  0.45739  Biso   1.000  O
  O26      1.0000 0.08757  0.15566  0.54261  Biso   1.000  O
  O27      1.0000 0.08757  0.34434  0.54261  Biso   1.000  O
  O28      1.0000 0.91243  0.84434  0.45739  Biso   1.000  O
  O29      1.0000 0.22803  0.48314  0.20464  Biso   1.000  O
  O30      1.0000 0.77197  0.98314  0.79536  Biso   1.000  O
  O31      1.0000 0.77197  0.51686  0.79536  Biso   1.000  O
  O32      1.0000 0.22803  0.01686  0.20464  Biso   1.000  O
  O33      1.0000 0.01868  0.93318  0.65557  Biso   1.000  O
  O34      1.0000 0.98132  0.43318  0.34443  Biso   1.000  O
  O35      1.0000 0.98132  0.06682  0.34443  Biso   1.000  O
  O36      1.0000 0.01868  0.56682  0.65557  Biso   1.000  O
  O37      1.0000 0.09443  0.03805  0.82561  Biso   1.000  O
  O38      1.0000 0.90557  0.53805  0.17439  Biso   1.000  O
  O39      1.0000 0.90557  0.96195  0.17439  Biso   1.000  O
  O40      1.0000 0.09443  0.46195  0.82561  Biso   1.000  O
  O41      1.0000 0.61866  0.92683  0.99360  Biso   1.000  O
  O42      1.0000 0.38134  0.42683  0.00640  Biso   1.000  O
  O43      1.0000 0.38134  0.07317  0.00640  Biso   1.000  O
  O44      1.0000 0.61866  0.57317  0.99360  Biso   1.000  O
  O45      1.0000 0.56174  0.84577  0.48148  Biso   1.000  O
  O46      1.0000 0.43826  0.34577  0.51852  Biso   1.000  O
  O47      1.0000 0.43826  0.15423  0.51852  Biso   1.000  O
  O48      1.0000 0.56174  0.65423  0.48148  Biso   1.000  O
  Ir1      1.0000 0.53525  0.32917  0.38445  Biso   1.000  Ir
  Ir2      1.0000 0.46475  0.82917  0.61555  Biso   1.000  Ir
  Ir3      1.0000 0.46475  0.67083  0.61555  Biso   1.000  Ir
  Ir4      1.0000 0.53525  0.17083  0.38445  Biso   1.000  Ir
  Ir5      1.0000 0.30832  0.44235  0.84554  Biso   1.000  Ir
  Ir6      1.0000 0.69168  0.94235  0.15446  Biso   1.000  Ir
  Ir7      1.0000 0.69168  0.55765  0.15446  Biso   1.000  Ir
  Ir8      1.0000 0.30832  0.05765  0.84554  Biso   1.000  Ir
  Ir9      1.0000 0.07786  0.89266  0.52492  Biso   1.000  Ir
  Ir10     1.0000 0.92215  0.39266  0.47508  Biso   1.000  Ir
  Ir11     1.0000 0.92215  0.10734  0.47508  Biso   1.000  Ir
  Ir12     1.0000 0.07786  0.60734  0.52492  Biso   1.000  Ir
  Ir13     1.0000 0.59264  0.94492  0.83032  Biso   1.000  Ir
  Ir14     1.0000 0.40736  0.44492  0.16968  Biso   1.000  Ir
  Ir15     1.0000 0.40736  0.05508  0.16968  Biso   1.000  Ir
  Ir16     1.0000 0.59264  0.55508  0.83032  Biso   1.000  Ir
  Ir17     1.0000 0.29116  0.17108  0.62015  Biso   1.000  Ir
  Ir18     1.0000 0.70885  0.67108  0.37985  Biso   1.000  Ir
  Ir19     1.0000 0.70885  0.82892  0.37985  Biso   1.000  Ir
  Ir20     1.0000 0.29116  0.32892  0.62015  Biso   1.000  Ir
  Ir21     1.0000 0.06121  0.99811  0.28449  Biso   1.000  Ir
  Ir22     1.0000 0.93879  0.49811  0.71551  Biso   1.000  Ir
  Ir23     1.0000 0.93879  0.00189  0.71551  Biso   1.000  Ir
  Ir24     1.0000 0.06121  0.50189  0.28449  Biso   1.000  Ir
