data_image0
_cell_length_a       9.94095
_cell_length_b       9.94095
_cell_length_c       5.21573
_cell_angle_alpha    90
_cell_angle_beta     90
_cell_angle_gamma    90

_symmetry_space_group_name_H-M    "P 1"
_symmetry_int_tables_number       1

loop_
  _symmetry_equiv_pos_as_xyz
  'x, y, z'

loop_
  _atom_site_label
  _atom_site_occupancy
  _atom_site_fract_x
  _atom_site_fract_y
  _atom_site_fract_z
  _atom_site_thermal_displace_type
  _atom_site_B_iso_or_equiv
  _atom_site_type_symbol
  Ir1      1.0000 0.00000  0.00000  0.00000  Biso   1.000  Ir
  Ir2      1.0000 0.50000  0.50000  0.50000  Biso   1.000  Ir
  Ir3      1.0000 0.73736  0.06638  0.00000  Biso   1.000  Ir
  Ir4      1.0000 0.26264  0.93362  0.00000  Biso   1.000  Ir
  Ir5      1.0000 0.43362  0.23736  0.50000  Biso   1.000  Ir
  Ir6      1.0000 0.56638  0.76264  0.50000  Biso   1.000  Ir
  Ir7      1.0000 0.76264  0.56638  0.50000  Biso   1.000  Ir
  Ir8      1.0000 0.23736  0.43362  0.50000  Biso   1.000  Ir
  Ir9      1.0000 0.06638  0.73736  0.00000  Biso   1.000  Ir
  Ir10     1.0000 0.93362  0.26264  0.00000  Biso   1.000  Ir
  O1       1.0000 0.46420  0.12924  0.00000  Biso   1.000  O
  O2       1.0000 0.53580  0.87075  0.00000  Biso   1.000  O
  O3       1.0000 0.37076  0.96420  0.50000  Biso   1.000  O
  O4       1.0000 0.62925  0.03580  0.50000  Biso   1.000  O
  O5       1.0000 0.03580  0.62925  0.50000  Biso   1.000  O
  O6       1.0000 0.96420  0.37076  0.50000  Biso   1.000  O
  O7       1.0000 0.12924  0.46420  0.00000  Biso   1.000  O
  O8       1.0000 0.87075  0.53580  0.00000  Biso   1.000  O
  O9       1.0000 0.39792  0.39792  0.00000  Biso   1.000  O
  O10      1.0000 0.60208  0.60208  0.00000  Biso   1.000  O
  O11      1.0000 0.10208  0.89792  0.50000  Biso   1.000  O
  O12      1.0000 0.89792  0.10208  0.50000  Biso   1.000  O
  O13      1.0000 0.81850  0.81850  0.74827  Biso   1.000  O
  O14      1.0000 0.18150  0.18150  0.74827  Biso   1.000  O
  O15      1.0000 0.68150  0.31850  0.24827  Biso   1.000  O
  O16      1.0000 0.31850  0.68150  0.24827  Biso   1.000  O
  O17      1.0000 0.68150  0.31850  0.75173  Biso   1.000  O
  O18      1.0000 0.31850  0.68150  0.75173  Biso   1.000  O
  O19      1.0000 0.81850  0.81850  0.25173  Biso   1.000  O
  O20      1.0000 0.18150  0.18150  0.25173  Biso   1.000  O
