data_image0
_cell_length_a       4.72093
_cell_length_b       8.17709
_cell_length_c       4.31943
_cell_angle_alpha    90
_cell_angle_beta     90.0127
_cell_angle_gamma    90

_symmetry_space_group_name_H-M    "P 1"
_symmetry_int_tables_number       1

loop_
  _symmetry_equiv_pos_as_xyz
  'x, y, z'

loop_
  _atom_site_label
  _atom_site_occupancy
  _atom_site_fract_x
  _atom_site_fract_y
  _atom_site_fract_z
  _atom_site_thermal_displace_type
  _atom_site_B_iso_or_equiv
  _atom_site_type_symbol
  O1       1.0000 0.16556  0.16554  0.74934  Biso   1.000  O
  O2       1.0000 0.83444  0.16554  0.25066  Biso   1.000  O
  O3       1.0000 0.83444  0.83446  0.25066  Biso   1.000  O
  O4       1.0000 0.16556  0.83446  0.74934  Biso   1.000  O
  O5       1.0000 0.66890  0.00000  0.74933  Biso   1.000  O
  O6       1.0000 0.33110  0.00000  0.25067  Biso   1.000  O
  O7       1.0000 0.66556  0.66554  0.74934  Biso   1.000  O
  O8       1.0000 0.33444  0.66554  0.25066  Biso   1.000  O
  O9       1.0000 0.33444  0.33446  0.25066  Biso   1.000  O
  O10      1.0000 0.66556  0.33446  0.74934  Biso   1.000  O
  O11      1.0000 0.16889  0.50000  0.74933  Biso   1.000  O
  O12      1.0000 0.83110  0.50000  0.25067  Biso   1.000  O
  Ir1      1.0000 0.00000  0.00000  0.00000  Biso   1.000  Ir
  Ir2      1.0000 0.50000  0.16664  0.50000  Biso   1.000  Ir
  Ir3      1.0000 0.50000  0.83336  0.50000  Biso   1.000  Ir
  Ir4      1.0000 0.50000  0.50000  0.00000  Biso   1.000  Ir
  Ir5      1.0000 0.00000  0.66664  0.50000  Biso   1.000  Ir
  Ir6      1.0000 0.00000  0.33336  0.50000  Biso   1.000  Ir
