data_image0
_cell_length_a       19.1236
_cell_length_b       19.1236
_cell_length_c       12.0507
_cell_angle_alpha    90
_cell_angle_beta     90
_cell_angle_gamma    90

_symmetry_space_group_name_H-M    "P 1"
_symmetry_int_tables_number       1

loop_
  _symmetry_equiv_pos_as_xyz
  'x, y, z'

loop_
  _atom_site_label
  _atom_site_occupancy
  _atom_site_fract_x
  _atom_site_fract_y
  _atom_site_fract_z
  _atom_site_thermal_displace_type
  _atom_site_B_iso_or_equiv
  _atom_site_type_symbol
  O1       1.0000 0.82810  0.45867  0.00000  Biso   1.000  O
  O2       1.0000 0.17189  0.54133  0.00000  Biso   1.000  O
  O3       1.0000 0.54133  0.82810  0.00000  Biso   1.000  O
  O4       1.0000 0.45867  0.17189  0.00000  Biso   1.000  O
  O5       1.0000 0.67189  0.95867  0.00000  Biso   1.000  O
  O6       1.0000 0.32810  0.04133  0.00000  Biso   1.000  O
  O7       1.0000 0.95867  0.32810  0.00000  Biso   1.000  O
  O8       1.0000 0.04133  0.67189  0.00000  Biso   1.000  O
  O9       1.0000 0.43129  0.31023  0.86370  Biso   1.000  O
  O10      1.0000 0.56871  0.68977  0.86370  Biso   1.000  O
  O11      1.0000 0.68977  0.43129  0.86370  Biso   1.000  O
  O12      1.0000 0.31023  0.56871  0.86370  Biso   1.000  O
  O13      1.0000 0.06871  0.81023  0.13630  Biso   1.000  O
  O14      1.0000 0.93129  0.18977  0.13630  Biso   1.000  O
  O15      1.0000 0.81023  0.93129  0.13630  Biso   1.000  O
  O16      1.0000 0.18977  0.06871  0.13630  Biso   1.000  O
  O17      1.0000 0.56871  0.68977  0.13630  Biso   1.000  O
  O18      1.0000 0.43129  0.31023  0.13630  Biso   1.000  O
  O19      1.0000 0.31023  0.56871  0.13630  Biso   1.000  O
  O20      1.0000 0.68977  0.43129  0.13630  Biso   1.000  O
  O21      1.0000 0.93129  0.18977  0.86370  Biso   1.000  O
  O22      1.0000 0.06871  0.81023  0.86370  Biso   1.000  O
  O23      1.0000 0.18977  0.06871  0.86370  Biso   1.000  O
  O24      1.0000 0.81023  0.93129  0.86370  Biso   1.000  O
  O25      1.0000 0.00000  0.50000  0.66819  Biso   1.000  O
  O26      1.0000 0.50000  0.00000  0.66819  Biso   1.000  O
  O27      1.0000 0.50000  0.00000  0.33181  Biso   1.000  O
  O28      1.0000 0.00000  0.50000  0.33181  Biso   1.000  O
  O29      1.0000 0.65921  0.96195  0.27006  Biso   1.000  O
  O30      1.0000 0.34079  0.03805  0.27006  Biso   1.000  O
  O31      1.0000 0.03805  0.65921  0.27006  Biso   1.000  O
  O32      1.0000 0.96195  0.34079  0.27006  Biso   1.000  O
  O33      1.0000 0.84079  0.46195  0.72994  Biso   1.000  O
  O34      1.0000 0.15921  0.53805  0.72994  Biso   1.000  O
  O35      1.0000 0.46195  0.15921  0.72994  Biso   1.000  O
  O36      1.0000 0.53805  0.84079  0.72994  Biso   1.000  O
  O37      1.0000 0.34079  0.03805  0.72994  Biso   1.000  O
  O38      1.0000 0.65921  0.96195  0.72994  Biso   1.000  O
  O39      1.0000 0.96195  0.34079  0.72994  Biso   1.000  O
  O40      1.0000 0.03805  0.65921  0.72994  Biso   1.000  O
  O41      1.0000 0.15921  0.53805  0.27006  Biso   1.000  O
  O42      1.0000 0.84079  0.46195  0.27006  Biso   1.000  O
  O43      1.0000 0.53805  0.84079  0.27006  Biso   1.000  O
  O44      1.0000 0.46195  0.15921  0.27006  Biso   1.000  O
  O45      1.0000 0.18283  0.68283  0.14859  Biso   1.000  O
  O46      1.0000 0.81717  0.31716  0.14859  Biso   1.000  O
  O47      1.0000 0.31716  0.18283  0.14859  Biso   1.000  O
  O48      1.0000 0.68283  0.81717  0.14859  Biso   1.000  O
  O49      1.0000 0.31716  0.18283  0.85141  Biso   1.000  O
  O50      1.0000 0.68283  0.81717  0.85141  Biso   1.000  O
  O51      1.0000 0.18283  0.68283  0.85141  Biso   1.000  O
  O52      1.0000 0.81717  0.31716  0.85141  Biso   1.000  O
  O53      1.0000 0.55079  0.39223  0.00000  Biso   1.000  O
  O54      1.0000 0.44921  0.60777  0.00000  Biso   1.000  O
  O55      1.0000 0.60777  0.55079  0.00000  Biso   1.000  O
  O56      1.0000 0.39223  0.44921  0.00000  Biso   1.000  O
  O57      1.0000 0.94921  0.89223  0.00000  Biso   1.000  O
  O58      1.0000 0.05079  0.10777  0.00000  Biso   1.000  O
  O59      1.0000 0.89223  0.05079  0.00000  Biso   1.000  O
  O60      1.0000 0.10777  0.94921  0.00000  Biso   1.000  O
  O61      1.0000 0.90783  0.40783  0.50000  Biso   1.000  O
  O62      1.0000 0.09217  0.59217  0.50000  Biso   1.000  O
  O63      1.0000 0.59217  0.90783  0.50000  Biso   1.000  O
  O64      1.0000 0.40783  0.09217  0.50000  Biso   1.000  O
  Ir1      1.0000 0.08136  0.70764  0.14235  Biso   1.000  Ir
  Ir2      1.0000 0.91864  0.29236  0.14235  Biso   1.000  Ir
  Ir3      1.0000 0.29236  0.08136  0.14235  Biso   1.000  Ir
  Ir4      1.0000 0.70764  0.91864  0.14235  Biso   1.000  Ir
  Ir5      1.0000 0.41864  0.20764  0.85765  Biso   1.000  Ir
  Ir6      1.0000 0.58136  0.79236  0.85765  Biso   1.000  Ir
  Ir7      1.0000 0.20764  0.58136  0.85765  Biso   1.000  Ir
  Ir8      1.0000 0.79236  0.41864  0.85765  Biso   1.000  Ir
  Ir9      1.0000 0.91864  0.29236  0.85765  Biso   1.000  Ir
  Ir10     1.0000 0.08136  0.70764  0.85765  Biso   1.000  Ir
  Ir11     1.0000 0.70764  0.91864  0.85765  Biso   1.000  Ir
  Ir12     1.0000 0.29236  0.08136  0.85765  Biso   1.000  Ir
  Ir13     1.0000 0.58136  0.79236  0.14235  Biso   1.000  Ir
  Ir14     1.0000 0.41864  0.20764  0.14235  Biso   1.000  Ir
  Ir15     1.0000 0.79236  0.41864  0.14235  Biso   1.000  Ir
  Ir16     1.0000 0.20764  0.58136  0.14235  Biso   1.000  Ir
  Ir17     1.0000 0.07199  0.57199  0.65639  Biso   1.000  Ir
  Ir18     1.0000 0.92801  0.42801  0.65639  Biso   1.000  Ir
  Ir19     1.0000 0.42801  0.07199  0.65639  Biso   1.000  Ir
  Ir20     1.0000 0.57199  0.92801  0.65639  Biso   1.000  Ir
  Ir21     1.0000 0.42801  0.07199  0.34361  Biso   1.000  Ir
  Ir22     1.0000 0.57199  0.92801  0.34361  Biso   1.000  Ir
  Ir23     1.0000 0.07199  0.57199  0.34361  Biso   1.000  Ir
  Ir24     1.0000 0.92801  0.42801  0.34361  Biso   1.000  Ir
  Ir25     1.0000 0.13383  0.04833  0.00000  Biso   1.000  Ir
  Ir26     1.0000 0.86617  0.95167  0.00000  Biso   1.000  Ir
  Ir27     1.0000 0.95167  0.13383  0.00000  Biso   1.000  Ir
  Ir28     1.0000 0.04833  0.86617  0.00000  Biso   1.000  Ir
  Ir29     1.0000 0.36617  0.54833  0.00000  Biso   1.000  Ir
  Ir30     1.0000 0.63383  0.45167  0.00000  Biso   1.000  Ir
  Ir31     1.0000 0.54833  0.63383  0.00000  Biso   1.000  Ir
  Ir32     1.0000 0.45167  0.36617  0.00000  Biso   1.000  Ir
