data_image0
_cell_length_a       18.6393
_cell_length_b       3.9806
_cell_length_c       13.2576
_cell_angle_alpha    90
_cell_angle_beta     90
_cell_angle_gamma    90

_symmetry_space_group_name_H-M    "P 1"
_symmetry_int_tables_number       1

loop_
  _symmetry_equiv_pos_as_xyz
  'x, y, z'

loop_
  _atom_site_label
  _atom_site_occupancy
  _atom_site_fract_x
  _atom_site_fract_y
  _atom_site_fract_z
  _atom_site_thermal_displace_type
  _atom_site_B_iso_or_equiv
  _atom_site_type_symbol
  O1       1.0000 0.25000  0.50000  0.45264  Biso   1.000  O
  O2       1.0000 0.75000  0.50000  0.54736  Biso   1.000  O
  O3       1.0000 0.63378  0.00000  0.94179  Biso   1.000  O
  O4       1.0000 0.86622  0.00000  0.94179  Biso   1.000  O
  O5       1.0000 0.36622  0.00000  0.05821  Biso   1.000  O
  O6       1.0000 0.13378  0.00000  0.05821  Biso   1.000  O
  O7       1.0000 0.33011  0.50000  0.72808  Biso   1.000  O
  O8       1.0000 0.16988  0.50000  0.72808  Biso   1.000  O
  O9       1.0000 0.66988  0.50000  0.27192  Biso   1.000  O
  O10      1.0000 0.83012  0.50000  0.27192  Biso   1.000  O
  O11      1.0000 0.11861  0.50000  0.50725  Biso   1.000  O
  O12      1.0000 0.38139  0.50000  0.50725  Biso   1.000  O
  O13      1.0000 0.88139  0.50000  0.49275  Biso   1.000  O
  O14      1.0000 0.61861  0.50000  0.49275  Biso   1.000  O
  O15      1.0000 0.49232  0.50000  0.65076  Biso   1.000  O
  O16      1.0000 0.00768  0.50000  0.65076  Biso   1.000  O
  O17      1.0000 0.50768  0.50000  0.34924  Biso   1.000  O
  O18      1.0000 0.99232  0.50000  0.34924  Biso   1.000  O
  O19      1.0000 0.25000  0.00000  0.60953  Biso   1.000  O
  O20      1.0000 0.75000  0.00000  0.39047  Biso   1.000  O
  O21      1.0000 0.57803  0.00000  0.17722  Biso   1.000  O
  O22      1.0000 0.92197  0.00000  0.17722  Biso   1.000  O
  O23      1.0000 0.42197  0.00000  0.82279  Biso   1.000  O
  O24      1.0000 0.07803  0.00000  0.82279  Biso   1.000  O
  O25      1.0000 0.25000  0.00000  0.89442  Biso   1.000  O
  O26      1.0000 0.75000  0.00000  0.10558  Biso   1.000  O
  O27      1.0000 0.83956  0.50000  0.73016  Biso   1.000  O
  O28      1.0000 0.66044  0.50000  0.73016  Biso   1.000  O
  O29      1.0000 0.16044  0.50000  0.26984  Biso   1.000  O
  O30      1.0000 0.33956  0.50000  0.26984  Biso   1.000  O
  O31      1.0000 0.00000  0.50000  0.00000  Biso   1.000  O
  O32      1.0000 0.50000  0.50000  0.00000  Biso   1.000  O
  O33      1.0000 0.25000  0.00000  0.14403  Biso   1.000  O
  O34      1.0000 0.75000  0.00000  0.85596  Biso   1.000  O
  O35      1.0000 0.00000  0.00000  0.00000  Biso   1.000  O
  O36      1.0000 0.50000  0.00000  0.00000  Biso   1.000  O
  Ir1      1.0000 0.64990  0.50000  0.07648  Biso   1.000  Ir
  Ir2      1.0000 0.85010  0.50000  0.07648  Biso   1.000  Ir
  Ir3      1.0000 0.35010  0.50000  0.92352  Biso   1.000  Ir
  Ir4      1.0000 0.14990  0.50000  0.92352  Biso   1.000  Ir
  Ir5      1.0000 0.91423  0.00000  0.62036  Biso   1.000  Ir
  Ir6      1.0000 0.58577  0.00000  0.62036  Biso   1.000  Ir
  Ir7      1.0000 0.08577  0.00000  0.37964  Biso   1.000  Ir
  Ir8      1.0000 0.41423  0.00000  0.37964  Biso   1.000  Ir
  Ir9      1.0000 0.54102  0.50000  0.82065  Biso   1.000  Ir
  Ir10     1.0000 0.95898  0.50000  0.82065  Biso   1.000  Ir
  Ir11     1.0000 0.45898  0.50000  0.17935  Biso   1.000  Ir
  Ir12     1.0000 0.04102  0.50000  0.17935  Biso   1.000  Ir
  Ir13     1.0000 0.60527  0.00000  0.36454  Biso   1.000  Ir
  Ir14     1.0000 0.89473  0.00000  0.36454  Biso   1.000  Ir
  Ir15     1.0000 0.39473  0.00000  0.63546  Biso   1.000  Ir
  Ir16     1.0000 0.10527  0.00000  0.63546  Biso   1.000  Ir
  Ir17     1.0000 0.25000  0.00000  0.33392  Biso   1.000  Ir
  Ir18     1.0000 0.75000  0.00000  0.66608  Biso   1.000  Ir
