data_image0
_cell_length_a       4.48929
_cell_length_b       6.55676
_cell_length_c       6.17952
_cell_angle_alpha    90
_cell_angle_beta     90.0356
_cell_angle_gamma    90

_symmetry_space_group_name_H-M    "P 1"
_symmetry_int_tables_number       1

loop_
  _symmetry_equiv_pos_as_xyz
  'x, y, z'

loop_
  _atom_site_label
  _atom_site_occupancy
  _atom_site_fract_x
  _atom_site_fract_y
  _atom_site_fract_z
  _atom_site_thermal_displace_type
  _atom_site_B_iso_or_equiv
  _atom_site_type_symbol
  Ir1      1.0000 0.50000  0.85936  0.25000  Biso   1.000  Ir
  Ir2      1.0000 0.50000  0.14064  0.75000  Biso   1.000  Ir
  Ir3      1.0000 0.00000  0.35979  0.25000  Biso   1.000  Ir
  Ir4      1.0000 0.00000  0.64021  0.75000  Biso   1.000  Ir
  O1       1.0000 0.19126  0.08800  0.45480  Biso   1.000  O
  O2       1.0000 0.80874  0.08800  0.04520  Biso   1.000  O
  O3       1.0000 0.80874  0.91200  0.54520  Biso   1.000  O
  O4       1.0000 0.19126  0.91200  0.95480  Biso   1.000  O
  O5       1.0000 0.69131  0.41203  0.54520  Biso   1.000  O
  O6       1.0000 0.30869  0.41203  0.95480  Biso   1.000  O
  O7       1.0000 0.30869  0.58797  0.45480  Biso   1.000  O
  O8       1.0000 0.69131  0.58797  0.04520  Biso   1.000  O
