data_image0
_cell_length_a       12.2777
_cell_length_b       18.0989
_cell_length_c       8.12184
_cell_angle_alpha    90
_cell_angle_beta     108.942
_cell_angle_gamma    90

_symmetry_space_group_name_H-M    "P 1"
_symmetry_int_tables_number       1

loop_
  _symmetry_equiv_pos_as_xyz
  'x, y, z'

loop_
  _atom_site_label
  _atom_site_occupancy
  _atom_site_fract_x
  _atom_site_fract_y
  _atom_site_fract_z
  _atom_site_thermal_displace_type
  _atom_site_B_iso_or_equiv
  _atom_site_type_symbol
  O1       1.0000 0.25000  0.75000  0.50000  Biso   1.000  O
  O2       1.0000 0.25000  0.25000  0.00000  Biso   1.000  O
  O3       1.0000 0.76512  0.14846  0.82773  Biso   1.000  O
  O4       1.0000 0.23488  0.14846  0.67227  Biso   1.000  O
  O5       1.0000 0.23488  0.85154  0.17227  Biso   1.000  O
  O6       1.0000 0.76512  0.85154  0.32773  Biso   1.000  O
  O7       1.0000 0.50000  0.36197  0.75000  Biso   1.000  O
  O8       1.0000 0.50000  0.63803  0.25000  Biso   1.000  O
  O9       1.0000 0.57692  0.12443  0.06619  Biso   1.000  O
  O10      1.0000 0.42308  0.12443  0.43381  Biso   1.000  O
  O11      1.0000 0.42308  0.87557  0.93381  Biso   1.000  O
  O12      1.0000 0.57692  0.87557  0.56619  Biso   1.000  O
  O13      1.0000 0.79680  0.03815  0.52241  Biso   1.000  O
  O14      1.0000 0.20320  0.03815  0.97759  Biso   1.000  O
  O15      1.0000 0.20320  0.96185  0.47759  Biso   1.000  O
  O16      1.0000 0.79680  0.96185  0.02241  Biso   1.000  O
  O17      1.0000 0.75000  0.25000  0.50000  Biso   1.000  O
  O18      1.0000 0.75000  0.75000  0.00000  Biso   1.000  O
  O19      1.0000 0.26512  0.64846  0.82773  Biso   1.000  O
  O20      1.0000 0.73488  0.64846  0.67227  Biso   1.000  O
  O21      1.0000 0.73488  0.35154  0.17227  Biso   1.000  O
  O22      1.0000 0.26512  0.35154  0.32773  Biso   1.000  O
  O23      1.0000 0.00000  0.86197  0.75000  Biso   1.000  O
  O24      1.0000 0.00000  0.13803  0.25000  Biso   1.000  O
  O25      1.0000 0.07692  0.62443  0.06619  Biso   1.000  O
  O26      1.0000 0.92308  0.62443  0.43381  Biso   1.000  O
  O27      1.0000 0.92308  0.37557  0.93381  Biso   1.000  O
  O28      1.0000 0.07692  0.37557  0.56619  Biso   1.000  O
  O29      1.0000 0.29680  0.53815  0.52241  Biso   1.000  O
  O30      1.0000 0.70320  0.53815  0.97759  Biso   1.000  O
  O31      1.0000 0.70320  0.46185  0.47759  Biso   1.000  O
  O32      1.0000 0.29680  0.46185  0.02241  Biso   1.000  O
  Ir1      1.0000 0.68264  0.14072  0.57090  Biso   1.000  Ir
  Ir2      1.0000 0.31736  0.14072  0.92910  Biso   1.000  Ir
  Ir3      1.0000 0.31736  0.85928  0.42910  Biso   1.000  Ir
  Ir4      1.0000 0.68264  0.85928  0.07090  Biso   1.000  Ir
  Ir5      1.0000 0.78493  0.09266  0.04196  Biso   1.000  Ir
  Ir6      1.0000 0.21507  0.09266  0.45804  Biso   1.000  Ir
  Ir7      1.0000 0.21507  0.90734  0.95804  Biso   1.000  Ir
  Ir8      1.0000 0.78493  0.90734  0.54197  Biso   1.000  Ir
  Ir9      1.0000 0.18264  0.64072  0.57090  Biso   1.000  Ir
  Ir10     1.0000 0.81736  0.64072  0.92910  Biso   1.000  Ir
  Ir11     1.0000 0.81736  0.35928  0.42910  Biso   1.000  Ir
  Ir12     1.0000 0.18264  0.35928  0.07090  Biso   1.000  Ir
  Ir13     1.0000 0.28493  0.59266  0.04196  Biso   1.000  Ir
  Ir14     1.0000 0.71507  0.59266  0.45804  Biso   1.000  Ir
  Ir15     1.0000 0.71507  0.40734  0.95804  Biso   1.000  Ir
  Ir16     1.0000 0.28493  0.40734  0.54197  Biso   1.000  Ir
