data_image0
_cell_length_a       15.3273
_cell_length_b       14.2062
_cell_length_c       26.7642
_cell_angle_alpha    90
_cell_angle_beta     90
_cell_angle_gamma    90

_symmetry_space_group_name_H-M    "P 1"
_symmetry_int_tables_number       1

loop_
  _symmetry_equiv_pos_as_xyz
  'x, y, z'

loop_
  _atom_site_label
  _atom_site_occupancy
  _atom_site_fract_x
  _atom_site_fract_y
  _atom_site_fract_z
  _atom_site_thermal_displace_type
  _atom_site_B_iso_or_equiv
  _atom_site_type_symbol
  O1       1.0000 0.18276  0.38704  0.34196  Biso   1.000  O
  O2       1.0000 0.81724  0.61296  0.34196  Biso   1.000  O
  O3       1.0000 0.18276  0.61296  0.34196  Biso   1.000  O
  O4       1.0000 0.81724  0.38704  0.34196  Biso   1.000  O
  O5       1.0000 0.14100  0.00000  0.03548  Biso   1.000  O
  O6       1.0000 0.85900  0.00000  0.03548  Biso   1.000  O
  O7       1.0000 0.20117  0.33851  0.45866  Biso   1.000  O
  O8       1.0000 0.79883  0.66149  0.45866  Biso   1.000  O
  O9       1.0000 0.20117  0.66149  0.45866  Biso   1.000  O
  O10      1.0000 0.79883  0.33851  0.45866  Biso   1.000  O
  O11      1.0000 0.10494  0.80526  0.18833  Biso   1.000  O
  O12      1.0000 0.89506  0.19474  0.18833  Biso   1.000  O
  O13      1.0000 0.10494  0.19474  0.18833  Biso   1.000  O
  O14      1.0000 0.89506  0.80526  0.18833  Biso   1.000  O
  O15      1.0000 0.35221  0.00000  0.35649  Biso   1.000  O
  O16      1.0000 0.64779  0.00000  0.35649  Biso   1.000  O
  O17      1.0000 0.50000  0.84075  0.34213  Biso   1.000  O
  O18      1.0000 0.50000  0.15925  0.34213  Biso   1.000  O
  O19      1.0000 0.14775  0.78460  0.07084  Biso   1.000  O
  O20      1.0000 0.85225  0.21540  0.07084  Biso   1.000  O
  O21      1.0000 0.14775  0.21540  0.07084  Biso   1.000  O
  O22      1.0000 0.85225  0.78460  0.07084  Biso   1.000  O
  O23      1.0000 0.30417  0.79312  0.15099  Biso   1.000  O
  O24      1.0000 0.69583  0.20688  0.15099  Biso   1.000  O
  O25      1.0000 0.30417  0.20688  0.15099  Biso   1.000  O
  O26      1.0000 0.69583  0.79312  0.15099  Biso   1.000  O
  O27      1.0000 0.18202  0.61187  0.14455  Biso   1.000  O
  O28      1.0000 0.81798  0.38813  0.14455  Biso   1.000  O
  O29      1.0000 0.18202  0.38813  0.14455  Biso   1.000  O
  O30      1.0000 0.81798  0.61187  0.14455  Biso   1.000  O
  O31      1.0000 0.33849  0.85261  0.26534  Biso   1.000  O
  O32      1.0000 0.66151  0.14739  0.26534  Biso   1.000  O
  O33      1.0000 0.33849  0.14739  0.26534  Biso   1.000  O
  O34      1.0000 0.66151  0.85261  0.26534  Biso   1.000  O
  O35      1.0000 0.00000  0.35131  0.49325  Biso   1.000  O
  O36      1.0000 0.00000  0.64870  0.49325  Biso   1.000  O
  O37      1.0000 0.31023  0.21962  0.37788  Biso   1.000  O
  O38      1.0000 0.68977  0.78038  0.37788  Biso   1.000  O
  O39      1.0000 0.31023  0.78038  0.37788  Biso   1.000  O
  O40      1.0000 0.68977  0.21962  0.37788  Biso   1.000  O
  O41      1.0000 0.00000  0.00000  0.38189  Biso   1.000  O
  O42      1.0000 0.50000  0.82242  0.18972  Biso   1.000  O
  O43      1.0000 0.50000  0.17759  0.18972  Biso   1.000  O
  O44      1.0000 0.89592  0.80659  0.38615  Biso   1.000  O
  O45      1.0000 0.10408  0.19341  0.38615  Biso   1.000  O
  O46      1.0000 0.89592  0.19341  0.38615  Biso   1.000  O
  O47      1.0000 0.10408  0.80659  0.38615  Biso   1.000  O
  O48      1.0000 0.12725  0.50000  0.24422  Biso   1.000  O
  O49      1.0000 0.87275  0.50000  0.24422  Biso   1.000  O
  O50      1.0000 0.00000  0.00000  0.19091  Biso   1.000  O
  O51      1.0000 0.00000  0.86211  0.28640  Biso   1.000  O
  O52      1.0000 0.00000  0.13789  0.28640  Biso   1.000  O
  O53      1.0000 0.37216  0.00000  0.17577  Biso   1.000  O
  O54      1.0000 0.62784  0.00000  0.17577  Biso   1.000  O
  O55      1.0000 0.00000  0.50000  0.14856  Biso   1.000  O
  O56      1.0000 0.00000  0.50000  0.33988  Biso   1.000  O
  O57      1.0000 0.18276  0.88704  0.84196  Biso   1.000  O
  O58      1.0000 0.81724  0.11296  0.84196  Biso   1.000  O
  O59      1.0000 0.18276  0.11296  0.84196  Biso   1.000  O
  O60      1.0000 0.81724  0.88704  0.84196  Biso   1.000  O
  O61      1.0000 0.14100  0.50000  0.53548  Biso   1.000  O
  O62      1.0000 0.85900  0.50000  0.53548  Biso   1.000  O
  O63      1.0000 0.20117  0.83851  0.95866  Biso   1.000  O
  O64      1.0000 0.79883  0.16149  0.95866  Biso   1.000  O
  O65      1.0000 0.20117  0.16149  0.95866  Biso   1.000  O
  O66      1.0000 0.79883  0.83851  0.95866  Biso   1.000  O
  O67      1.0000 0.10494  0.30526  0.68833  Biso   1.000  O
  O68      1.0000 0.89506  0.69474  0.68833  Biso   1.000  O
  O69      1.0000 0.10494  0.69474  0.68833  Biso   1.000  O
  O70      1.0000 0.89506  0.30526  0.68833  Biso   1.000  O
  O71      1.0000 0.35221  0.50000  0.85649  Biso   1.000  O
  O72      1.0000 0.64779  0.50000  0.85649  Biso   1.000  O
  O73      1.0000 0.50000  0.34075  0.84213  Biso   1.000  O
  O74      1.0000 0.50000  0.65925  0.84213  Biso   1.000  O
  O75      1.0000 0.14775  0.28460  0.57084  Biso   1.000  O
  O76      1.0000 0.85225  0.71540  0.57084  Biso   1.000  O
  O77      1.0000 0.14775  0.71540  0.57084  Biso   1.000  O
  O78      1.0000 0.85225  0.28460  0.57084  Biso   1.000  O
  O79      1.0000 0.30417  0.29312  0.65099  Biso   1.000  O
  O80      1.0000 0.69583  0.70688  0.65099  Biso   1.000  O
  O81      1.0000 0.30417  0.70688  0.65099  Biso   1.000  O
  O82      1.0000 0.69583  0.29312  0.65099  Biso   1.000  O
  O83      1.0000 0.18202  0.11187  0.64455  Biso   1.000  O
  O84      1.0000 0.81798  0.88813  0.64455  Biso   1.000  O
  O85      1.0000 0.18202  0.88813  0.64455  Biso   1.000  O
  O86      1.0000 0.81798  0.11187  0.64455  Biso   1.000  O
  O87      1.0000 0.33849  0.35261  0.76534  Biso   1.000  O
  O88      1.0000 0.66151  0.64739  0.76534  Biso   1.000  O
  O89      1.0000 0.33849  0.64739  0.76534  Biso   1.000  O
  O90      1.0000 0.66151  0.35261  0.76534  Biso   1.000  O
  O91      1.0000 0.00000  0.85131  0.99325  Biso   1.000  O
  O92      1.0000 0.00000  0.14870  0.99325  Biso   1.000  O
  O93      1.0000 0.31023  0.71962  0.87788  Biso   1.000  O
  O94      1.0000 0.68977  0.28038  0.87788  Biso   1.000  O
  O95      1.0000 0.31023  0.28038  0.87788  Biso   1.000  O
  O96      1.0000 0.68977  0.71962  0.87788  Biso   1.000  O
  O97      1.0000 0.00000  0.50000  0.88189  Biso   1.000  O
  O98      1.0000 0.50000  0.32242  0.68972  Biso   1.000  O
  O99      1.0000 0.50000  0.67759  0.68972  Biso   1.000  O
  O100     1.0000 0.89592  0.30659  0.88615  Biso   1.000  O
  O101     1.0000 0.10408  0.69341  0.88615  Biso   1.000  O
  O102     1.0000 0.89592  0.69341  0.88615  Biso   1.000  O
  O103     1.0000 0.10408  0.30659  0.88615  Biso   1.000  O
  O104     1.0000 0.12725  0.00000  0.74422  Biso   1.000  O
  O105     1.0000 0.87275  0.00000  0.74422  Biso   1.000  O
  O106     1.0000 0.00000  0.50000  0.69091  Biso   1.000  O
  O107     1.0000 0.00000  0.36211  0.78640  Biso   1.000  O
  O108     1.0000 0.00000  0.63789  0.78640  Biso   1.000  O
  O109     1.0000 0.37216  0.50000  0.67577  Biso   1.000  O
  O110     1.0000 0.62784  0.50000  0.67577  Biso   1.000  O
  O111     1.0000 0.00000  0.00000  0.64856  Biso   1.000  O
  O112     1.0000 0.00000  0.00000  0.83988  Biso   1.000  O
  Ir1      1.0000 0.00000  0.86833  0.35977  Biso   1.000  Ir
  Ir2      1.0000 0.00000  0.13167  0.35977  Biso   1.000  Ir
  Ir3      1.0000 0.37858  0.86677  0.19558  Biso   1.000  Ir
  Ir4      1.0000 0.62142  0.13323  0.19558  Biso   1.000  Ir
  Ir5      1.0000 0.37858  0.13323  0.19558  Biso   1.000  Ir
  Ir6      1.0000 0.62142  0.86677  0.19558  Biso   1.000  Ir
  Ir7      1.0000 0.18427  0.74930  0.13855  Biso   1.000  Ir
  Ir8      1.0000 0.81573  0.25070  0.13855  Biso   1.000  Ir
  Ir9      1.0000 0.18427  0.25070  0.13855  Biso   1.000  Ir
  Ir10     1.0000 0.81573  0.74930  0.13855  Biso   1.000  Ir
  Ir11     1.0000 0.00000  0.86800  0.21345  Biso   1.000  Ir
  Ir12     1.0000 0.00000  0.13200  0.21345  Biso   1.000  Ir
  Ir13     1.0000 0.37500  0.86869  0.33567  Biso   1.000  Ir
  Ir14     1.0000 0.62500  0.13131  0.33567  Biso   1.000  Ir
  Ir15     1.0000 0.37500  0.13131  0.33567  Biso   1.000  Ir
  Ir16     1.0000 0.62500  0.86869  0.33567  Biso   1.000  Ir
  Ir17     1.0000 0.19934  0.28502  0.39080  Biso   1.000  Ir
  Ir18     1.0000 0.80066  0.71498  0.39080  Biso   1.000  Ir
  Ir19     1.0000 0.19934  0.71498  0.39080  Biso   1.000  Ir
  Ir20     1.0000 0.80066  0.28502  0.39080  Biso   1.000  Ir
  Ir21     1.0000 0.12255  0.86834  0.01459  Biso   1.000  Ir
  Ir22     1.0000 0.87745  0.13166  0.01459  Biso   1.000  Ir
  Ir23     1.0000 0.12255  0.13166  0.01459  Biso   1.000  Ir
  Ir24     1.0000 0.87745  0.86834  0.01459  Biso   1.000  Ir
  Ir25     1.0000 0.12261  0.50000  0.17079  Biso   1.000  Ir
  Ir26     1.0000 0.87739  0.50000  0.17079  Biso   1.000  Ir
  Ir27     1.0000 0.12303  0.50000  0.31708  Biso   1.000  Ir
  Ir28     1.0000 0.87697  0.50000  0.31708  Biso   1.000  Ir
  Ir29     1.0000 0.00000  0.36833  0.85977  Biso   1.000  Ir
  Ir30     1.0000 0.00000  0.63167  0.85977  Biso   1.000  Ir
  Ir31     1.0000 0.37858  0.36677  0.69558  Biso   1.000  Ir
  Ir32     1.0000 0.62142  0.63323  0.69558  Biso   1.000  Ir
  Ir33     1.0000 0.37858  0.63323  0.69558  Biso   1.000  Ir
  Ir34     1.0000 0.62142  0.36677  0.69558  Biso   1.000  Ir
  Ir35     1.0000 0.18427  0.24930  0.63855  Biso   1.000  Ir
  Ir36     1.0000 0.81573  0.75070  0.63855  Biso   1.000  Ir
  Ir37     1.0000 0.18427  0.75070  0.63855  Biso   1.000  Ir
  Ir38     1.0000 0.81573  0.24930  0.63855  Biso   1.000  Ir
  Ir39     1.0000 0.00000  0.36800  0.71345  Biso   1.000  Ir
  Ir40     1.0000 0.00000  0.63200  0.71345  Biso   1.000  Ir
  Ir41     1.0000 0.37500  0.36869  0.83567  Biso   1.000  Ir
  Ir42     1.0000 0.62500  0.63131  0.83567  Biso   1.000  Ir
  Ir43     1.0000 0.37500  0.63131  0.83567  Biso   1.000  Ir
  Ir44     1.0000 0.62500  0.36869  0.83567  Biso   1.000  Ir
  Ir45     1.0000 0.19934  0.78502  0.89080  Biso   1.000  Ir
  Ir46     1.0000 0.80066  0.21498  0.89080  Biso   1.000  Ir
  Ir47     1.0000 0.19934  0.21498  0.89080  Biso   1.000  Ir
  Ir48     1.0000 0.80066  0.78502  0.89080  Biso   1.000  Ir
  Ir49     1.0000 0.12255  0.36834  0.51459  Biso   1.000  Ir
  Ir50     1.0000 0.87745  0.63166  0.51459  Biso   1.000  Ir
  Ir51     1.0000 0.12255  0.63166  0.51459  Biso   1.000  Ir
  Ir52     1.0000 0.87745  0.36834  0.51459  Biso   1.000  Ir
  Ir53     1.0000 0.12261  0.00000  0.67079  Biso   1.000  Ir
  Ir54     1.0000 0.87739  0.00000  0.67079  Biso   1.000  Ir
  Ir55     1.0000 0.12303  0.00000  0.81708  Biso   1.000  Ir
  Ir56     1.0000 0.87697  0.00000  0.81708  Biso   1.000  Ir
