data_image0
_cell_length_a       5.41878
_cell_length_b       5.41878
_cell_length_c       129.432
_cell_angle_alpha    90
_cell_angle_beta     90
_cell_angle_gamma    120

_symmetry_space_group_name_H-M    "P 1"
_symmetry_int_tables_number       1

loop_
  _symmetry_equiv_pos_as_xyz
  'x, y, z'

loop_
  _atom_site_label
  _atom_site_occupancy
  _atom_site_fract_x
  _atom_site_fract_y
  _atom_site_fract_z
  _atom_site_thermal_displace_type
  _atom_site_B_iso_or_equiv
  _atom_site_type_symbol
  Ir1      1.0000 0.33333  0.66667  0.13240  Biso   1.000  Ir
  Ir2      1.0000 0.33333  0.66667  0.83823  Biso   1.000  Ir
  Ir3      1.0000 0.00000  0.00000  0.07352  Biso   1.000  Ir
  Ir4      1.0000 0.00000  0.00000  0.48526  Biso   1.000  Ir
  Ir5      1.0000 0.33333  0.66667  0.89705  Biso   1.000  Ir
  Ir6      1.0000 0.33333  0.66667  0.72062  Biso   1.000  Ir
  Ir7      1.0000 0.00000  0.00000  0.36767  Biso   1.000  Ir
  Ir8      1.0000 0.00000  0.00000  0.19113  Biso   1.000  Ir
  Ir9      1.0000 0.33333  0.66667  0.01473  Biso   1.000  Ir
  Ir10     1.0000 0.33333  0.66667  0.42650  Biso   1.000  Ir
  Ir11     1.0000 0.66667  0.33333  0.30883  Biso   1.000  Ir
  Ir12     1.0000 0.00000  0.00000  0.66178  Biso   1.000  Ir
  Ir13     1.0000 0.33333  0.66667  0.54408  Biso   1.000  Ir
  Ir14     1.0000 0.00000  0.00000  0.95586  Biso   1.000  Ir
  Ir15     1.0000 0.00000  0.00000  0.24997  Biso   1.000  Ir
  Ir16     1.0000 0.33333  0.66667  0.60294  Biso   1.000  Ir
  Ir17     1.0000 0.00000  0.00000  0.77944  Biso   1.000  Ir
  O1       1.0000 0.66667  0.33333  0.41319  Biso   1.000  O
  O2       1.0000 0.33333  0.66667  0.67508  Biso   1.000  O
  O3       1.0000 0.00000  0.00000  0.91035  Biso   1.000  O
  O4       1.0000 0.66667  0.33333  0.06023  Biso   1.000  O
  O5       1.0000 0.00000  0.00000  0.43980  Biso   1.000  O
  O6       1.0000 0.00000  0.00000  0.55738  Biso   1.000  O
  O7       1.0000 0.66667  0.33333  0.17783  Biso   1.000  O
  O8       1.0000 0.66667  0.33333  0.94257  Biso   1.000  O
  O9       1.0000 0.00000  0.00000  0.29552  Biso   1.000  O
  O10      1.0000 0.00000  0.00000  0.14569  Biso   1.000  O
  O11      1.0000 0.33333  0.66667  0.32214  Biso   1.000  O
  O12      1.0000 0.66667  0.33333  0.23667  Biso   1.000  O
  O13      1.0000 0.33333  0.66667  0.38098  Biso   1.000  O
  O14      1.0000 0.66667  0.33333  0.88374  Biso   1.000  O
  O15      1.0000 0.66667  0.33333  0.64849  Biso   1.000  O
  O16      1.0000 0.66667  0.33333  0.70731  Biso   1.000  O
  O17      1.0000 0.66667  0.33333  0.47196  Biso   1.000  O
  O18      1.0000 0.66667  0.33333  0.11909  Biso   1.000  O
  O19      1.0000 0.66667  0.33333  0.82493  Biso   1.000  O
  O20      1.0000 0.33333  0.66667  0.20444  Biso   1.000  O
  O21      1.0000 0.00000  0.00000  0.02803  Biso   1.000  O
  O22      1.0000 0.33333  0.66667  0.08683  Biso   1.000  O
  O23      1.0000 0.66667  0.33333  0.76613  Biso   1.000  O
  O24      1.0000 0.66667  0.33333  0.00142  Biso   1.000  O
  O25      1.0000 0.66667  0.33333  0.35437  Biso   1.000  O
  O26      1.0000 0.00000  0.00000  0.61624  Biso   1.000  O
  O27      1.0000 0.33333  0.66667  0.79275  Biso   1.000  O
  O28      1.0000 0.33333  0.66667  0.96916  Biso   1.000  O
  O29      1.0000 0.66667  0.33333  0.58962  Biso   1.000  O
  O30      1.0000 0.00000  0.00000  0.73392  Biso   1.000  O
  O31      1.0000 0.33333  0.66667  0.49856  Biso   1.000  O
  O32      1.0000 0.00000  0.00000  0.85154  Biso   1.000  O
  O33      1.0000 0.66667  0.33333  0.53078  Biso   1.000  O
  O34      1.0000 0.33333  0.66667  0.26328  Biso   1.000  O
