data_image0
_cell_length_a       5.36345
_cell_length_b       5.36344
_cell_length_c       104.639
_cell_angle_alpha    90
_cell_angle_beta     90
_cell_angle_gamma    120

_symmetry_space_group_name_H-M    "P 1"
_symmetry_int_tables_number       1

loop_
  _symmetry_equiv_pos_as_xyz
  'x, y, z'

loop_
  _atom_site_label
  _atom_site_occupancy
  _atom_site_fract_x
  _atom_site_fract_y
  _atom_site_fract_z
  _atom_site_thermal_displace_type
  _atom_site_B_iso_or_equiv
  _atom_site_type_symbol
  Ir1      1.0000 0.00000  0.00000  0.00000  Biso   1.000  Ir
  Ir2      1.0000 0.33333  0.66667  0.06667  Biso   1.000  Ir
  Ir3      1.0000 0.33333  0.66667  0.26667  Biso   1.000  Ir
  Ir4      1.0000 0.33333  0.66667  0.13334  Biso   1.000  Ir
  Ir5      1.0000 0.33333  0.66667  0.20000  Biso   1.000  Ir
  Ir6      1.0000 0.66667  0.33333  0.33333  Biso   1.000  Ir
  Ir7      1.0000 0.00000  0.00000  0.40000  Biso   1.000  Ir
  Ir8      1.0000 0.00000  0.00000  0.60000  Biso   1.000  Ir
  Ir9      1.0000 0.00000  0.00000  0.46667  Biso   1.000  Ir
  Ir10     1.0000 0.00000  0.00000  0.53333  Biso   1.000  Ir
  Ir11     1.0000 0.33333  0.66667  0.66667  Biso   1.000  Ir
  Ir12     1.0000 0.66667  0.33333  0.73333  Biso   1.000  Ir
  Ir13     1.0000 0.66667  0.33333  0.93333  Biso   1.000  Ir
  Ir14     1.0000 0.66667  0.33333  0.80000  Biso   1.000  Ir
  Ir15     1.0000 0.66667  0.33333  0.86666  Biso   1.000  Ir
  O1       1.0000 0.33333  0.66667  0.01647  Biso   1.000  O
  O2       1.0000 0.33333  0.66667  0.31686  Biso   1.000  O
  O3       1.0000 0.66667  0.33333  0.05017  Biso   1.000  O
  O4       1.0000 0.00000  0.00000  0.28316  Biso   1.000  O
  O5       1.0000 0.00000  0.00000  0.08315  Biso   1.000  O
  O6       1.0000 0.66667  0.33333  0.25018  Biso   1.000  O
  O7       1.0000 0.66667  0.33333  0.11684  Biso   1.000  O
  O8       1.0000 0.00000  0.00000  0.21649  Biso   1.000  O
  O9       1.0000 0.00000  0.00000  0.14982  Biso   1.000  O
  O10      1.0000 0.66667  0.33333  0.18352  Biso   1.000  O
  O11      1.0000 0.00000  0.00000  0.34981  Biso   1.000  O
  O12      1.0000 0.00000  0.00000  0.65019  Biso   1.000  O
  O13      1.0000 0.33333  0.66667  0.38350  Biso   1.000  O
  O14      1.0000 0.66667  0.33333  0.61650  Biso   1.000  O
  O15      1.0000 0.66667  0.33333  0.41648  Biso   1.000  O
  O16      1.0000 0.33333  0.66667  0.58352  Biso   1.000  O
  O17      1.0000 0.33333  0.66667  0.45018  Biso   1.000  O
  O18      1.0000 0.66667  0.33333  0.54982  Biso   1.000  O
  O19      1.0000 0.66667  0.33333  0.48315  Biso   1.000  O
  O20      1.0000 0.33333  0.66667  0.51685  Biso   1.000  O
  O21      1.0000 0.66667  0.33333  0.68314  Biso   1.000  O
  O22      1.0000 0.66667  0.33333  0.98353  Biso   1.000  O
  O23      1.0000 0.00000  0.00000  0.71684  Biso   1.000  O
  O24      1.0000 0.33333  0.66667  0.94983  Biso   1.000  O
  O25      1.0000 0.33333  0.66667  0.74982  Biso   1.000  O
  O26      1.0000 0.00000  0.00000  0.91685  Biso   1.000  O
  O27      1.0000 0.00000  0.00000  0.78351  Biso   1.000  O
  O28      1.0000 0.33333  0.66667  0.88316  Biso   1.000  O
  O29      1.0000 0.33333  0.66667  0.81648  Biso   1.000  O
  O30      1.0000 0.00000  0.00000  0.85019  Biso   1.000  O
