data_image0
_cell_length_a       22.2452
_cell_length_b       25.0184
_cell_length_c       9.1797
_cell_angle_alpha    90
_cell_angle_beta     90
_cell_angle_gamma    90

_symmetry_space_group_name_H-M    "P 1"
_symmetry_int_tables_number       1

loop_
  _symmetry_equiv_pos_as_xyz
  'x, y, z'

loop_
  _atom_site_label
  _atom_site_occupancy
  _atom_site_fract_x
  _atom_site_fract_y
  _atom_site_fract_z
  _atom_site_thermal_displace_type
  _atom_site_B_iso_or_equiv
  _atom_site_type_symbol
  O1       1.0000 0.71957  0.00000  0.00000  Biso   1.000  O
  O2       1.0000 0.28042  0.00000  0.50000  Biso   1.000  O
  O3       1.0000 0.28042  0.00000  0.00000  Biso   1.000  O
  O4       1.0000 0.71957  0.00000  0.50000  Biso   1.000  O
  O5       1.0000 0.67253  0.92028  0.25000  Biso   1.000  O
  O6       1.0000 0.32747  0.07972  0.75000  Biso   1.000  O
  O7       1.0000 0.32747  0.92028  0.25000  Biso   1.000  O
  O8       1.0000 0.67253  0.07972  0.75000  Biso   1.000  O
  O9       1.0000 0.62377  0.90765  0.92527  Biso   1.000  O
  O10      1.0000 0.37623  0.09235  0.42527  Biso   1.000  O
  O11      1.0000 0.37623  0.90765  0.57473  Biso   1.000  O
  O12      1.0000 0.62377  0.09235  0.07473  Biso   1.000  O
  O13      1.0000 0.37623  0.09235  0.07473  Biso   1.000  O
  O14      1.0000 0.62377  0.90765  0.57473  Biso   1.000  O
  O15      1.0000 0.62377  0.09235  0.42527  Biso   1.000  O
  O16      1.0000 0.37623  0.90765  0.92527  Biso   1.000  O
  O17      1.0000 0.76130  0.87798  0.99913  Biso   1.000  O
  O18      1.0000 0.23870  0.12202  0.49913  Biso   1.000  O
  O19      1.0000 0.23870  0.87798  0.50087  Biso   1.000  O
  O20      1.0000 0.76130  0.12202  0.00087  Biso   1.000  O
  O21      1.0000 0.23870  0.12202  0.00087  Biso   1.000  O
  O22      1.0000 0.76130  0.87798  0.50087  Biso   1.000  O
  O23      1.0000 0.76130  0.12202  0.49913  Biso   1.000  O
  O24      1.0000 0.23870  0.87798  0.99913  Biso   1.000  O
  O25      1.0000 0.67416  0.69111  0.25000  Biso   1.000  O
  O26      1.0000 0.32584  0.30889  0.75000  Biso   1.000  O
  O27      1.0000 0.32584  0.69111  0.25000  Biso   1.000  O
  O28      1.0000 0.67416  0.30889  0.75000  Biso   1.000  O
  O29      1.0000 0.25000  0.25000  0.00000  Biso   1.000  O
  O30      1.0000 0.25000  0.25000  0.50000  Biso   1.000  O
  O31      1.0000 0.25000  0.75000  0.50000  Biso   1.000  O
  O32      1.0000 0.25000  0.75000  0.00000  Biso   1.000  O
  O33      1.0000 0.62387  0.69398  0.92505  Biso   1.000  O
  O34      1.0000 0.37613  0.30602  0.42505  Biso   1.000  O
  O35      1.0000 0.37613  0.69398  0.57495  Biso   1.000  O
  O36      1.0000 0.62387  0.30602  0.07495  Biso   1.000  O
  O37      1.0000 0.37613  0.30602  0.07495  Biso   1.000  O
  O38      1.0000 0.62387  0.69398  0.57495  Biso   1.000  O
  O39      1.0000 0.62387  0.30602  0.42505  Biso   1.000  O
  O40      1.0000 0.37613  0.69398  0.92505  Biso   1.000  O
  O41      1.0000 0.50000  0.09910  0.25000  Biso   1.000  O
  O42      1.0000 0.50000  0.90090  0.75000  Biso   1.000  O
  O43      1.0000 0.40912  0.19914  0.25000  Biso   1.000  O
  O44      1.0000 0.59088  0.80086  0.75000  Biso   1.000  O
  O45      1.0000 0.59088  0.19914  0.25000  Biso   1.000  O
  O46      1.0000 0.40912  0.80086  0.75000  Biso   1.000  O
  O47      1.0000 0.50000  0.29916  0.25000  Biso   1.000  O
  O48      1.0000 0.50000  0.70084  0.75000  Biso   1.000  O
  O49      1.0000 0.21957  0.50000  0.00000  Biso   1.000  O
  O50      1.0000 0.78043  0.50000  0.50000  Biso   1.000  O
  O51      1.0000 0.78043  0.50000  0.00000  Biso   1.000  O
  O52      1.0000 0.21957  0.50000  0.50000  Biso   1.000  O
  O53      1.0000 0.17253  0.42028  0.25000  Biso   1.000  O
  O54      1.0000 0.82747  0.57972  0.75000  Biso   1.000  O
  O55      1.0000 0.82747  0.42028  0.25000  Biso   1.000  O
  O56      1.0000 0.17253  0.57972  0.75000  Biso   1.000  O
  O57      1.0000 0.12377  0.40765  0.92527  Biso   1.000  O
  O58      1.0000 0.87623  0.59235  0.42527  Biso   1.000  O
  O59      1.0000 0.87623  0.40765  0.57473  Biso   1.000  O
  O60      1.0000 0.12377  0.59235  0.07473  Biso   1.000  O
  O61      1.0000 0.87623  0.59235  0.07473  Biso   1.000  O
  O62      1.0000 0.12377  0.40765  0.57473  Biso   1.000  O
  O63      1.0000 0.12377  0.59235  0.42527  Biso   1.000  O
  O64      1.0000 0.87623  0.40765  0.92527  Biso   1.000  O
  O65      1.0000 0.26130  0.37798  0.99913  Biso   1.000  O
  O66      1.0000 0.73870  0.62202  0.49913  Biso   1.000  O
  O67      1.0000 0.73870  0.37798  0.50087  Biso   1.000  O
  O68      1.0000 0.26130  0.62202  0.00087  Biso   1.000  O
  O69      1.0000 0.73870  0.62202  0.00087  Biso   1.000  O
  O70      1.0000 0.26130  0.37798  0.50087  Biso   1.000  O
  O71      1.0000 0.26130  0.62202  0.49913  Biso   1.000  O
  O72      1.0000 0.73870  0.37798  0.99913  Biso   1.000  O
  O73      1.0000 0.17416  0.19111  0.25000  Biso   1.000  O
  O74      1.0000 0.82584  0.80889  0.75000  Biso   1.000  O
  O75      1.0000 0.82584  0.19111  0.25000  Biso   1.000  O
  O76      1.0000 0.17416  0.80889  0.75000  Biso   1.000  O
  O77      1.0000 0.75000  0.75000  0.00000  Biso   1.000  O
  O78      1.0000 0.75000  0.75000  0.50000  Biso   1.000  O
  O79      1.0000 0.75000  0.25000  0.50000  Biso   1.000  O
  O80      1.0000 0.75000  0.25000  0.00000  Biso   1.000  O
  O81      1.0000 0.12387  0.19398  0.92505  Biso   1.000  O
  O82      1.0000 0.87613  0.80602  0.42505  Biso   1.000  O
  O83      1.0000 0.87613  0.19398  0.57495  Biso   1.000  O
  O84      1.0000 0.12387  0.80602  0.07495  Biso   1.000  O
  O85      1.0000 0.87613  0.80602  0.07495  Biso   1.000  O
  O86      1.0000 0.12387  0.19398  0.57495  Biso   1.000  O
  O87      1.0000 0.12387  0.80602  0.42505  Biso   1.000  O
  O88      1.0000 0.87613  0.19398  0.92505  Biso   1.000  O
  O89      1.0000 0.00000  0.59910  0.25000  Biso   1.000  O
  O90      1.0000 0.00000  0.40091  0.75000  Biso   1.000  O
  O91      1.0000 0.90912  0.69914  0.25000  Biso   1.000  O
  O92      1.0000 0.09088  0.30086  0.75000  Biso   1.000  O
  O93      1.0000 0.09088  0.69914  0.25000  Biso   1.000  O
  O94      1.0000 0.90912  0.30086  0.75000  Biso   1.000  O
  O95      1.0000 0.00000  0.79916  0.25000  Biso   1.000  O
  O96      1.0000 0.00000  0.20084  0.75000  Biso   1.000  O
  Ir1      1.0000 0.69430  0.92638  0.04343  Biso   1.000  Ir
  Ir2      1.0000 0.30570  0.07363  0.54343  Biso   1.000  Ir
  Ir3      1.0000 0.30570  0.92638  0.45657  Biso   1.000  Ir
  Ir4      1.0000 0.69430  0.07363  0.95657  Biso   1.000  Ir
  Ir5      1.0000 0.30570  0.07363  0.95657  Biso   1.000  Ir
  Ir6      1.0000 0.69430  0.92638  0.45657  Biso   1.000  Ir
  Ir7      1.0000 0.69430  0.07363  0.54343  Biso   1.000  Ir
  Ir8      1.0000 0.30570  0.92638  0.04343  Biso   1.000  Ir
  Ir9      1.0000 0.19720  0.18931  0.04388  Biso   1.000  Ir
  Ir10     1.0000 0.80280  0.81069  0.54388  Biso   1.000  Ir
  Ir11     1.0000 0.80280  0.18931  0.45612  Biso   1.000  Ir
  Ir12     1.0000 0.19720  0.81069  0.95612  Biso   1.000  Ir
  Ir13     1.0000 0.80280  0.81069  0.95612  Biso   1.000  Ir
  Ir14     1.0000 0.19720  0.18931  0.45612  Biso   1.000  Ir
  Ir15     1.0000 0.19720  0.81069  0.54388  Biso   1.000  Ir
  Ir16     1.0000 0.80280  0.18931  0.04388  Biso   1.000  Ir
  Ir17     1.0000 0.41527  0.12084  0.25000  Biso   1.000  Ir
  Ir18     1.0000 0.58473  0.87916  0.75000  Biso   1.000  Ir
  Ir19     1.0000 0.58473  0.12084  0.25000  Biso   1.000  Ir
  Ir20     1.0000 0.41527  0.87916  0.75000  Biso   1.000  Ir
  Ir21     1.0000 0.41517  0.27731  0.25000  Biso   1.000  Ir
  Ir22     1.0000 0.58483  0.72269  0.75000  Biso   1.000  Ir
  Ir23     1.0000 0.58483  0.27731  0.25000  Biso   1.000  Ir
  Ir24     1.0000 0.41517  0.72269  0.75000  Biso   1.000  Ir
  Ir25     1.0000 0.19430  0.42638  0.04343  Biso   1.000  Ir
  Ir26     1.0000 0.80570  0.57363  0.54343  Biso   1.000  Ir
  Ir27     1.0000 0.80570  0.42638  0.45657  Biso   1.000  Ir
  Ir28     1.0000 0.19430  0.57363  0.95657  Biso   1.000  Ir
  Ir29     1.0000 0.80570  0.57363  0.95657  Biso   1.000  Ir
  Ir30     1.0000 0.19430  0.42638  0.45657  Biso   1.000  Ir
  Ir31     1.0000 0.19430  0.57363  0.54343  Biso   1.000  Ir
  Ir32     1.0000 0.80570  0.42638  0.04343  Biso   1.000  Ir
  Ir33     1.0000 0.69720  0.68931  0.04388  Biso   1.000  Ir
  Ir34     1.0000 0.30280  0.31069  0.54388  Biso   1.000  Ir
  Ir35     1.0000 0.30280  0.68931  0.45612  Biso   1.000  Ir
  Ir36     1.0000 0.69720  0.31069  0.95612  Biso   1.000  Ir
  Ir37     1.0000 0.30280  0.31069  0.95612  Biso   1.000  Ir
  Ir38     1.0000 0.69720  0.68931  0.45612  Biso   1.000  Ir
  Ir39     1.0000 0.69720  0.31069  0.54388  Biso   1.000  Ir
  Ir40     1.0000 0.30280  0.68931  0.04388  Biso   1.000  Ir
  Ir41     1.0000 0.91527  0.62084  0.25000  Biso   1.000  Ir
  Ir42     1.0000 0.08473  0.37916  0.75000  Biso   1.000  Ir
  Ir43     1.0000 0.08473  0.62084  0.25000  Biso   1.000  Ir
  Ir44     1.0000 0.91527  0.37916  0.75000  Biso   1.000  Ir
  Ir45     1.0000 0.91517  0.77731  0.25000  Biso   1.000  Ir
  Ir46     1.0000 0.08483  0.22269  0.75000  Biso   1.000  Ir
  Ir47     1.0000 0.08483  0.77731  0.25000  Biso   1.000  Ir
  Ir48     1.0000 0.91517  0.22269  0.75000  Biso   1.000  Ir
