data_image0
_cell_length_a       5.42669
_cell_length_b       5.42669
_cell_length_c       103.051
_cell_angle_alpha    90
_cell_angle_beta     90
_cell_angle_gamma    120

_symmetry_space_group_name_H-M    "P 1"
_symmetry_int_tables_number       1

loop_
  _symmetry_equiv_pos_as_xyz
  'x, y, z'

loop_
  _atom_site_label
  _atom_site_occupancy
  _atom_site_fract_x
  _atom_site_fract_y
  _atom_site_fract_z
  _atom_site_thermal_displace_type
  _atom_site_B_iso_or_equiv
  _atom_site_type_symbol
  Ir1      1.0000 0.00000  0.00000  0.94645  Biso   1.000  Ir
  Ir2      1.0000 0.00000  0.00000  0.73216  Biso   1.000  Ir
  Ir3      1.0000 0.00000  0.00000  0.30356  Biso   1.000  Ir
  Ir4      1.0000 0.33333  0.66667  0.16073  Biso   1.000  Ir
  Ir5      1.0000 0.33333  0.66667  0.01786  Biso   1.000  Ir
  Ir6      1.0000 0.00000  0.00000  0.51786  Biso   1.000  Ir
  Ir7      1.0000 0.00000  0.00000  0.08927  Biso   1.000  Ir
  Ir8      1.0000 0.33333  0.66667  0.58927  Biso   1.000  Ir
  Ir9      1.0000 0.00000  0.00000  0.23216  Biso   1.000  Ir
  Ir10     1.0000 0.00000  0.00000  0.80356  Biso   1.000  Ir
  Ir11     1.0000 0.00000  0.00000  0.87498  Biso   1.000  Ir
  Ir12     1.0000 0.00000  0.00000  0.66073  Biso   1.000  Ir
  Ir13     1.0000 0.00000  0.00000  0.37498  Biso   1.000  Ir
  Ir14     1.0000 0.00000  0.00000  0.44645  Biso   1.000  Ir
  O1       1.0000 0.66667  0.33333  0.07253  Biso   1.000  O
  O2       1.0000 0.66667  0.33333  0.64396  Biso   1.000  O
  O3       1.0000 0.66667  0.33333  0.78678  Biso   1.000  O
  O4       1.0000 0.33333  0.66667  0.10605  Biso   1.000  O
  O5       1.0000 0.33333  0.66667  0.67749  Biso   1.000  O
  O6       1.0000 0.66667  0.33333  0.85820  Biso   1.000  O
  O7       1.0000 0.00000  0.00000  0.60605  Biso   1.000  O
  O8       1.0000 0.66667  0.33333  0.92968  Biso   1.000  O
  O9       1.0000 0.00000  0.00000  0.17749  Biso   1.000  O
  O10      1.0000 0.33333  0.66667  0.53463  Biso   1.000  O
  O11      1.0000 0.33333  0.66667  0.24893  Biso   1.000  O
  O12      1.0000 0.66667  0.33333  0.35820  Biso   1.000  O
  O13      1.0000 0.33333  0.66667  0.82034  Biso   1.000  O
  O14      1.0000 0.66667  0.33333  0.21538  Biso   1.000  O
  O15      1.0000 0.66667  0.33333  0.50112  Biso   1.000  O
  O16      1.0000 0.33333  0.66667  0.39172  Biso   1.000  O
  O17      1.0000 0.66667  0.33333  0.71537  Biso   1.000  O
  O18      1.0000 0.33333  0.66667  0.32033  Biso   1.000  O
  O19      1.0000 0.66667  0.33333  0.57253  Biso   1.000  O
  O20      1.0000 0.66667  0.33333  0.14396  Biso   1.000  O
  O21      1.0000 0.66667  0.33333  0.42968  Biso   1.000  O
  O22      1.0000 0.00000  0.00000  0.03464  Biso   1.000  O
  O23      1.0000 0.66667  0.33333  0.28678  Biso   1.000  O
  O24      1.0000 0.33333  0.66667  0.96319  Biso   1.000  O
  O25      1.0000 0.33333  0.66667  0.46319  Biso   1.000  O
  O26      1.0000 0.33333  0.66667  0.89172  Biso   1.000  O
  O27      1.0000 0.66667  0.33333  0.00112  Biso   1.000  O
  O28      1.0000 0.33333  0.66667  0.74893  Biso   1.000  O
