data_image0
_cell_length_a       5.42194
_cell_length_b       5.42193
_cell_length_c       88.9271
_cell_angle_alpha    90
_cell_angle_beta     90
_cell_angle_gamma    120

_symmetry_space_group_name_H-M    "P 1"
_symmetry_int_tables_number       1

loop_
  _symmetry_equiv_pos_as_xyz
  'x, y, z'

loop_
  _atom_site_label
  _atom_site_occupancy
  _atom_site_fract_x
  _atom_site_fract_y
  _atom_site_fract_z
  _atom_site_thermal_displace_type
  _atom_site_B_iso_or_equiv
  _atom_site_type_symbol
  Ir1      1.0000 0.00000  0.00000  0.68751  Biso   1.000  Ir
  Ir2      1.0000 0.33333  0.66667  0.02085  Biso   1.000  Ir
  Ir3      1.0000 0.33333  0.66667  0.77082  Biso   1.000  Ir
  Ir4      1.0000 0.00000  0.00000  0.27081  Biso   1.000  Ir
  Ir5      1.0000 0.00000  0.00000  0.60414  Biso   1.000  Ir
  Ir6      1.0000 0.00000  0.00000  0.35418  Biso   1.000  Ir
  Ir7      1.0000 0.00000  0.00000  0.10415  Biso   1.000  Ir
  Ir8      1.0000 0.00000  0.00000  0.85418  Biso   1.000  Ir
  Ir9      1.0000 0.00000  0.00000  0.93747  Biso   1.000  Ir
  Ir10     1.0000 0.00000  0.00000  0.43748  Biso   1.000  Ir
  Ir11     1.0000 0.00000  0.00000  0.52084  Biso   1.000  Ir
  Ir12     1.0000 0.00000  0.00000  0.18751  Biso   1.000  Ir
  O1       1.0000 0.66667  0.33333  0.16814  Biso   1.000  O
  O2       1.0000 0.33333  0.66667  0.70689  Biso   1.000  O
  O3       1.0000 0.00000  0.00000  0.79020  Biso   1.000  O
  O4       1.0000 0.33333  0.66667  0.45687  Biso   1.000  O
  O5       1.0000 0.66667  0.33333  0.41812  Biso   1.000  O
  O6       1.0000 0.33333  0.66667  0.12353  Biso   1.000  O
  O7       1.0000 0.66667  0.33333  0.25144  Biso   1.000  O
  O8       1.0000 0.66667  0.33333  0.58477  Biso   1.000  O
  O9       1.0000 0.66667  0.33333  0.66814  Biso   1.000  O
  O10      1.0000 0.33333  0.66667  0.62353  Biso   1.000  O
  O11      1.0000 0.33333  0.66667  0.20689  Biso   1.000  O
  O12      1.0000 0.33333  0.66667  0.87355  Biso   1.000  O
  O13      1.0000 0.66667  0.33333  0.91810  Biso   1.000  O
  O14      1.0000 0.66667  0.33333  0.83481  Biso   1.000  O
  O15      1.0000 0.00000  0.00000  0.04022  Biso   1.000  O
  O16      1.0000 0.66667  0.33333  0.50148  Biso   1.000  O
  O17      1.0000 0.66667  0.33333  0.08478  Biso   1.000  O
  O18      1.0000 0.33333  0.66667  0.95686  Biso   1.000  O
  O19      1.0000 0.66667  0.33333  0.33481  Biso   1.000  O
  O20      1.0000 0.33333  0.66667  0.29020  Biso   1.000  O
  O21      1.0000 0.66667  0.33333  0.75145  Biso   1.000  O
  O22      1.0000 0.33333  0.66667  0.54022  Biso   1.000  O
  O23      1.0000 0.33333  0.66667  0.37356  Biso   1.000  O
  O24      1.0000 0.66667  0.33333  0.00148  Biso   1.000  O
