data_image0
_cell_length_a       5.41578
_cell_length_b       5.41578
_cell_length_c       51.821
_cell_angle_alpha    90
_cell_angle_beta     90
_cell_angle_gamma    120

_symmetry_space_group_name_H-M    "P 1"
_symmetry_int_tables_number       1

loop_
  _symmetry_equiv_pos_as_xyz
  'x, y, z'

loop_
  _atom_site_label
  _atom_site_occupancy
  _atom_site_fract_x
  _atom_site_fract_y
  _atom_site_fract_z
  _atom_site_thermal_displace_type
  _atom_site_B_iso_or_equiv
  _atom_site_type_symbol
  Ir1      1.0000 0.33333  0.66667  0.89284  Biso   1.000  Ir
  Ir2      1.0000 0.33333  0.66667  0.32138  Biso   1.000  Ir
  Ir3      1.0000 0.00000  0.00000  0.46429  Biso   1.000  Ir
  Ir4      1.0000 0.33333  0.66667  0.60716  Biso   1.000  Ir
  Ir5      1.0000 0.33333  0.66667  0.17861  Biso   1.000  Ir
  Ir6      1.0000 0.00000  0.00000  0.03572  Biso   1.000  Ir
  Ir7      1.0000 0.33333  0.66667  0.75000  Biso   1.000  Ir
  O1       1.0000 0.00000  0.00000  0.28809  Biso   1.000  O
  O2       1.0000 0.00000  0.00000  0.14530  Biso   1.000  O
  O3       1.0000 0.66667  0.33333  0.06902  Biso   1.000  O
  O4       1.0000 0.00000  0.00000  0.57388  Biso   1.000  O
  O5       1.0000 0.66667  0.33333  0.21191  Biso   1.000  O
  O6       1.0000 0.66667  0.33333  0.35469  Biso   1.000  O
  O7       1.0000 0.33333  0.66667  0.43097  Biso   1.000  O
  O8       1.0000 0.66667  0.33333  0.64044  Biso   1.000  O
  O9       1.0000 0.33333  0.66667  0.00244  Biso   1.000  O
  O10      1.0000 0.66667  0.33333  0.78327  Biso   1.000  O
  O11      1.0000 0.66667  0.33333  0.92612  Biso   1.000  O
  O12      1.0000 0.00000  0.00000  0.85956  Biso   1.000  O
  O13      1.0000 0.66667  0.33333  0.49760  Biso   1.000  O
  O14      1.0000 0.00000  0.00000  0.71672  Biso   1.000  O
