data_image0
_cell_length_a       5.41669
_cell_length_b       5.41669
_cell_length_c       59.249
_cell_angle_alpha    90
_cell_angle_beta     90
_cell_angle_gamma    120

_symmetry_space_group_name_H-M    "P 1"
_symmetry_int_tables_number       1

loop_
  _symmetry_equiv_pos_as_xyz
  'x, y, z'

loop_
  _atom_site_label
  _atom_site_occupancy
  _atom_site_fract_x
  _atom_site_fract_y
  _atom_site_fract_z
  _atom_site_thermal_displace_type
  _atom_site_B_iso_or_equiv
  _atom_site_type_symbol
  Ir1      1.0000 0.33333  0.66667  0.90622  Biso   1.000  Ir
  Ir2      1.0000 0.33333  0.66667  0.78127  Biso   1.000  Ir
  Ir3      1.0000 0.00000  0.00000  0.28125  Biso   1.000  Ir
  Ir4      1.0000 0.33333  0.66667  0.53127  Biso   1.000  Ir
  Ir5      1.0000 0.33333  0.66667  0.40623  Biso   1.000  Ir
  Ir6      1.0000 0.00000  0.00000  0.15623  Biso   1.000  Ir
  Ir7      1.0000 0.33333  0.66667  0.03127  Biso   1.000  Ir
  Ir8      1.0000 0.33333  0.66667  0.65622  Biso   1.000  Ir
  O1       1.0000 0.66667  0.33333  0.81040  Biso   1.000  O
  O2       1.0000 0.00000  0.00000  0.00216  Biso   1.000  O
  O3       1.0000 0.66667  0.33333  0.56039  Biso   1.000  O
  O4       1.0000 0.33333  0.66667  0.12709  Biso   1.000  O
  O5       1.0000 0.00000  0.00000  0.37711  Biso   1.000  O
  O6       1.0000 0.66667  0.33333  0.06039  Biso   1.000  O
  O7       1.0000 0.33333  0.66667  0.25212  Biso   1.000  O
  O8       1.0000 0.66667  0.33333  0.43536  Biso   1.000  O
  O9       1.0000 0.66667  0.33333  0.18536  Biso   1.000  O
  O10      1.0000 0.00000  0.00000  0.62711  Biso   1.000  O
  O11      1.0000 0.66667  0.33333  0.31038  Biso   1.000  O
  O12      1.0000 0.66667  0.33333  0.93536  Biso   1.000  O
  O13      1.0000 0.00000  0.00000  0.75217  Biso   1.000  O
  O14      1.0000 0.00000  0.00000  0.87711  Biso   1.000  O
  O15      1.0000 0.66667  0.33333  0.68536  Biso   1.000  O
  O16      1.0000 0.00000  0.00000  0.50217  Biso   1.000  O
