data_image0
_cell_length_a       16.4351
_cell_length_b       16.4351
_cell_length_c       26.7007
_cell_angle_alpha    90
_cell_angle_beta     90
_cell_angle_gamma    90

_symmetry_space_group_name_H-M    "P 1"
_symmetry_int_tables_number       1

loop_
  _symmetry_equiv_pos_as_xyz
  'x, y, z'

loop_
  _atom_site_label
  _atom_site_occupancy
  _atom_site_fract_x
  _atom_site_fract_y
  _atom_site_fract_z
  _atom_site_thermal_displace_type
  _atom_site_B_iso_or_equiv
  _atom_site_type_symbol
  O1       1.0000 0.84974  0.81439  0.33385  Biso   1.000  O
  O2       1.0000 0.15026  0.18561  0.33385  Biso   1.000  O
  O3       1.0000 0.31439  0.65026  0.16615  Biso   1.000  O
  O4       1.0000 0.68561  0.34974  0.16615  Biso   1.000  O
  O5       1.0000 0.84974  0.18561  0.33385  Biso   1.000  O
  O6       1.0000 0.15026  0.81439  0.33385  Biso   1.000  O
  O7       1.0000 0.31439  0.34974  0.16615  Biso   1.000  O
  O8       1.0000 0.68561  0.65026  0.16615  Biso   1.000  O
  O9       1.0000 0.81555  0.87696  0.44601  Biso   1.000  O
  O10      1.0000 0.18445  0.12304  0.44601  Biso   1.000  O
  O11      1.0000 0.37696  0.68445  0.05399  Biso   1.000  O
  O12      1.0000 0.62304  0.31555  0.05399  Biso   1.000  O
  O13      1.0000 0.81555  0.12304  0.44601  Biso   1.000  O
  O14      1.0000 0.18445  0.87696  0.44601  Biso   1.000  O
  O15      1.0000 0.37696  0.31555  0.05399  Biso   1.000  O
  O16      1.0000 0.62304  0.68445  0.05399  Biso   1.000  O
  O17      1.0000 0.35889  0.50000  0.09305  Biso   1.000  O
  O18      1.0000 0.64111  0.50000  0.09305  Biso   1.000  O
  O19      1.0000 0.00000  0.14111  0.40695  Biso   1.000  O
  O20      1.0000 0.00000  0.85889  0.40695  Biso   1.000  O
  O21      1.0000 0.88375  0.00000  0.36259  Biso   1.000  O
  O22      1.0000 0.11625  0.00000  0.36259  Biso   1.000  O
  O23      1.0000 0.50000  0.61625  0.13741  Biso   1.000  O
  O24      1.0000 0.50000  0.38375  0.13741  Biso   1.000  O
  O25      1.0000 0.20716  0.50000  0.20723  Biso   1.000  O
  O26      1.0000 0.79284  0.50000  0.20723  Biso   1.000  O
  O27      1.0000 0.00000  0.29284  0.29277  Biso   1.000  O
  O28      1.0000 0.00000  0.70716  0.29277  Biso   1.000  O
  O29      1.0000 0.86385  0.62468  0.36361  Biso   1.000  O
  O30      1.0000 0.13615  0.37532  0.36361  Biso   1.000  O
  O31      1.0000 0.12468  0.63615  0.13639  Biso   1.000  O
  O32      1.0000 0.87532  0.36385  0.13639  Biso   1.000  O
  O33      1.0000 0.86385  0.37532  0.36361  Biso   1.000  O
  O34      1.0000 0.13615  0.62468  0.36361  Biso   1.000  O
  O35      1.0000 0.12468  0.36385  0.13639  Biso   1.000  O
  O36      1.0000 0.87532  0.63615  0.13639  Biso   1.000  O
  O37      1.0000 0.82080  0.32080  0.25000  Biso   1.000  O
  O38      1.0000 0.17920  0.67920  0.25000  Biso   1.000  O
  O39      1.0000 0.82080  0.67920  0.25000  Biso   1.000  O
  O40      1.0000 0.17920  0.32080  0.25000  Biso   1.000  O
  O41      1.0000 0.81160  0.68557  0.47392  Biso   1.000  O
  O42      1.0000 0.18840  0.31443  0.47392  Biso   1.000  O
  O43      1.0000 0.18557  0.68840  0.02608  Biso   1.000  O
  O44      1.0000 0.81443  0.31160  0.02608  Biso   1.000  O
  O45      1.0000 0.81160  0.31443  0.47392  Biso   1.000  O
  O46      1.0000 0.18840  0.68557  0.47392  Biso   1.000  O
  O47      1.0000 0.18557  0.31160  0.02608  Biso   1.000  O
  O48      1.0000 0.81443  0.68840  0.02608  Biso   1.000  O
  O49      1.0000 0.14307  0.50000  0.04967  Biso   1.000  O
  O50      1.0000 0.85693  0.50000  0.04967  Biso   1.000  O
  O51      1.0000 0.00000  0.35693  0.45033  Biso   1.000  O
  O52      1.0000 0.00000  0.64307  0.45033  Biso   1.000  O
  O53      1.0000 0.86552  0.50000  0.45615  Biso   1.000  O
  O54      1.0000 0.13448  0.50000  0.45615  Biso   1.000  O
  O55      1.0000 0.00000  0.63448  0.04385  Biso   1.000  O
  O56      1.0000 0.00000  0.36552  0.04385  Biso   1.000  O
  O57      1.0000 0.34974  0.31439  0.83385  Biso   1.000  O
  O58      1.0000 0.65026  0.68561  0.83385  Biso   1.000  O
  O59      1.0000 0.81439  0.15026  0.66615  Biso   1.000  O
  O60      1.0000 0.18561  0.84974  0.66615  Biso   1.000  O
  O61      1.0000 0.34974  0.68561  0.83385  Biso   1.000  O
  O62      1.0000 0.65026  0.31439  0.83385  Biso   1.000  O
  O63      1.0000 0.81439  0.84974  0.66615  Biso   1.000  O
  O64      1.0000 0.18561  0.15026  0.66615  Biso   1.000  O
  O65      1.0000 0.31555  0.37696  0.94601  Biso   1.000  O
  O66      1.0000 0.68445  0.62304  0.94601  Biso   1.000  O
  O67      1.0000 0.87696  0.18445  0.55399  Biso   1.000  O
  O68      1.0000 0.12304  0.81555  0.55399  Biso   1.000  O
  O69      1.0000 0.31555  0.62304  0.94601  Biso   1.000  O
  O70      1.0000 0.68445  0.37696  0.94601  Biso   1.000  O
  O71      1.0000 0.87696  0.81555  0.55399  Biso   1.000  O
  O72      1.0000 0.12304  0.18445  0.55399  Biso   1.000  O
  O73      1.0000 0.85889  0.00000  0.59305  Biso   1.000  O
  O74      1.0000 0.14111  0.00000  0.59305  Biso   1.000  O
  O75      1.0000 0.50000  0.64111  0.90695  Biso   1.000  O
  O76      1.0000 0.50000  0.35889  0.90695  Biso   1.000  O
  O77      1.0000 0.38375  0.50000  0.86259  Biso   1.000  O
  O78      1.0000 0.61625  0.50000  0.86259  Biso   1.000  O
  O79      1.0000 0.00000  0.11625  0.63741  Biso   1.000  O
  O80      1.0000 0.00000  0.88375  0.63741  Biso   1.000  O
  O81      1.0000 0.70716  0.00000  0.70723  Biso   1.000  O
  O82      1.0000 0.29284  0.00000  0.70723  Biso   1.000  O
  O83      1.0000 0.50000  0.79284  0.79277  Biso   1.000  O
  O84      1.0000 0.50000  0.20716  0.79277  Biso   1.000  O
  O85      1.0000 0.36385  0.12468  0.86361  Biso   1.000  O
  O86      1.0000 0.63615  0.87532  0.86361  Biso   1.000  O
  O87      1.0000 0.62468  0.13615  0.63639  Biso   1.000  O
  O88      1.0000 0.37532  0.86385  0.63639  Biso   1.000  O
  O89      1.0000 0.36385  0.87532  0.86361  Biso   1.000  O
  O90      1.0000 0.63615  0.12468  0.86361  Biso   1.000  O
  O91      1.0000 0.62468  0.86385  0.63639  Biso   1.000  O
  O92      1.0000 0.37532  0.13615  0.63639  Biso   1.000  O
  O93      1.0000 0.32080  0.82080  0.75000  Biso   1.000  O
  O94      1.0000 0.67920  0.17920  0.75000  Biso   1.000  O
  O95      1.0000 0.32080  0.17920  0.75000  Biso   1.000  O
  O96      1.0000 0.67920  0.82080  0.75000  Biso   1.000  O
  O97      1.0000 0.31160  0.18557  0.97393  Biso   1.000  O
  O98      1.0000 0.68840  0.81443  0.97393  Biso   1.000  O
  O99      1.0000 0.68557  0.18840  0.52607  Biso   1.000  O
  O100     1.0000 0.31443  0.81160  0.52607  Biso   1.000  O
  O101     1.0000 0.31160  0.81443  0.97393  Biso   1.000  O
  O102     1.0000 0.68840  0.18557  0.97393  Biso   1.000  O
  O103     1.0000 0.68557  0.81160  0.52607  Biso   1.000  O
  O104     1.0000 0.31443  0.18840  0.52607  Biso   1.000  O
  O105     1.0000 0.64307  0.00000  0.54967  Biso   1.000  O
  O106     1.0000 0.35693  0.00000  0.54967  Biso   1.000  O
  O107     1.0000 0.50000  0.85693  0.95033  Biso   1.000  O
  O108     1.0000 0.50000  0.14307  0.95033  Biso   1.000  O
  O109     1.0000 0.36552  0.00000  0.95615  Biso   1.000  O
  O110     1.0000 0.63448  0.00000  0.95615  Biso   1.000  O
  O111     1.0000 0.50000  0.13448  0.54385  Biso   1.000  O
  O112     1.0000 0.50000  0.86552  0.54385  Biso   1.000  O
  Ir1      1.0000 0.88688  0.88765  0.38738  Biso   1.000  Ir
  Ir2      1.0000 0.11312  0.11235  0.38738  Biso   1.000  Ir
  Ir3      1.0000 0.38765  0.61312  0.11262  Biso   1.000  Ir
  Ir4      1.0000 0.61235  0.38688  0.11262  Biso   1.000  Ir
  Ir5      1.0000 0.88688  0.11235  0.38738  Biso   1.000  Ir
  Ir6      1.0000 0.11312  0.88765  0.38738  Biso   1.000  Ir
  Ir7      1.0000 0.38765  0.38688  0.11262  Biso   1.000  Ir
  Ir8      1.0000 0.61235  0.61312  0.11262  Biso   1.000  Ir
  Ir9      1.0000 0.88532  0.61348  0.43619  Biso   1.000  Ir
  Ir10     1.0000 0.11468  0.38652  0.43619  Biso   1.000  Ir
  Ir11     1.0000 0.11348  0.61468  0.06381  Biso   1.000  Ir
  Ir12     1.0000 0.88652  0.38532  0.06381  Biso   1.000  Ir
  Ir13     1.0000 0.88532  0.38652  0.43619  Biso   1.000  Ir
  Ir14     1.0000 0.11468  0.61348  0.43619  Biso   1.000  Ir
  Ir15     1.0000 0.11348  0.38532  0.06381  Biso   1.000  Ir
  Ir16     1.0000 0.88652  0.61468  0.06381  Biso   1.000  Ir
  Ir17     1.0000 0.11632  0.70545  0.30994  Biso   1.000  Ir
  Ir18     1.0000 0.88368  0.29455  0.30994  Biso   1.000  Ir
  Ir19     1.0000 0.20545  0.38368  0.19006  Biso   1.000  Ir
  Ir20     1.0000 0.79455  0.61632  0.19006  Biso   1.000  Ir
  Ir21     1.0000 0.11632  0.29455  0.30994  Biso   1.000  Ir
  Ir22     1.0000 0.88368  0.70545  0.30994  Biso   1.000  Ir
  Ir23     1.0000 0.20545  0.61632  0.19006  Biso   1.000  Ir
  Ir24     1.0000 0.79455  0.38368  0.19006  Biso   1.000  Ir
  Ir25     1.0000 0.70316  0.70316  0.00000  Biso   1.000  Ir
  Ir26     1.0000 0.29684  0.29684  0.00000  Biso   1.000  Ir
  Ir27     1.0000 0.70316  0.29684  0.00000  Biso   1.000  Ir
  Ir28     1.0000 0.29684  0.70316  0.00000  Biso   1.000  Ir
  Ir29     1.0000 0.38688  0.38765  0.88738  Biso   1.000  Ir
  Ir30     1.0000 0.61312  0.61235  0.88738  Biso   1.000  Ir
  Ir31     1.0000 0.88765  0.11312  0.61262  Biso   1.000  Ir
  Ir32     1.0000 0.11235  0.88688  0.61262  Biso   1.000  Ir
  Ir33     1.0000 0.38688  0.61235  0.88738  Biso   1.000  Ir
  Ir34     1.0000 0.61312  0.38765  0.88738  Biso   1.000  Ir
  Ir35     1.0000 0.88765  0.88688  0.61262  Biso   1.000  Ir
  Ir36     1.0000 0.11235  0.11312  0.61262  Biso   1.000  Ir
  Ir37     1.0000 0.38532  0.11348  0.93619  Biso   1.000  Ir
  Ir38     1.0000 0.61468  0.88652  0.93619  Biso   1.000  Ir
  Ir39     1.0000 0.61348  0.11468  0.56381  Biso   1.000  Ir
  Ir40     1.0000 0.38652  0.88532  0.56381  Biso   1.000  Ir
  Ir41     1.0000 0.38532  0.88652  0.93619  Biso   1.000  Ir
  Ir42     1.0000 0.61468  0.11348  0.93619  Biso   1.000  Ir
  Ir43     1.0000 0.61348  0.88532  0.56381  Biso   1.000  Ir
  Ir44     1.0000 0.38652  0.11468  0.56381  Biso   1.000  Ir
  Ir45     1.0000 0.61632  0.20545  0.80993  Biso   1.000  Ir
  Ir46     1.0000 0.38368  0.79455  0.80993  Biso   1.000  Ir
  Ir47     1.0000 0.70545  0.88368  0.69006  Biso   1.000  Ir
  Ir48     1.0000 0.29455  0.11632  0.69006  Biso   1.000  Ir
  Ir49     1.0000 0.61632  0.79455  0.80993  Biso   1.000  Ir
  Ir50     1.0000 0.38368  0.20545  0.80993  Biso   1.000  Ir
  Ir51     1.0000 0.70545  0.11632  0.69006  Biso   1.000  Ir
  Ir52     1.0000 0.29455  0.88368  0.69006  Biso   1.000  Ir
  Ir53     1.0000 0.20316  0.20316  0.50000  Biso   1.000  Ir
  Ir54     1.0000 0.79684  0.79684  0.50000  Biso   1.000  Ir
  Ir55     1.0000 0.20316  0.79684  0.50000  Biso   1.000  Ir
  Ir56     1.0000 0.79684  0.20316  0.50000  Biso   1.000  Ir
