data_image0
_cell_length_a       17.9424
_cell_length_b       33.6902
_cell_length_c       10.1583
_cell_angle_alpha    90
_cell_angle_beta     90
_cell_angle_gamma    90

_symmetry_space_group_name_H-M    "P 1"
_symmetry_int_tables_number       1

loop_
  _symmetry_equiv_pos_as_xyz
  'x, y, z'

loop_
  _atom_site_label
  _atom_site_occupancy
  _atom_site_fract_x
  _atom_site_fract_y
  _atom_site_fract_z
  _atom_site_thermal_displace_type
  _atom_site_B_iso_or_equiv
  _atom_site_type_symbol
  O1       1.0000 0.50000  0.29806  0.75000  Biso   1.000  O
  O2       1.0000 0.00000  0.20194  0.25000  Biso   1.000  O
  O3       1.0000 0.00000  0.20194  0.75000  Biso   1.000  O
  O4       1.0000 0.50000  0.29806  0.25000  Biso   1.000  O
  O5       1.0000 0.67285  0.31667  0.79963  Biso   1.000  O
  O6       1.0000 0.82715  0.18333  0.29963  Biso   1.000  O
  O7       1.0000 0.32715  0.31667  0.70037  Biso   1.000  O
  O8       1.0000 0.17285  0.18333  0.20037  Biso   1.000  O
  O9       1.0000 0.82715  0.18333  0.70037  Biso   1.000  O
  O10      1.0000 0.67285  0.31667  0.20037  Biso   1.000  O
  O11      1.0000 0.17285  0.18333  0.79963  Biso   1.000  O
  O12      1.0000 0.32715  0.31667  0.29963  Biso   1.000  O
  O13      1.0000 0.62158  0.22914  0.70817  Biso   1.000  O
  O14      1.0000 0.87842  0.27086  0.20817  Biso   1.000  O
  O15      1.0000 0.37842  0.22914  0.79183  Biso   1.000  O
  O16      1.0000 0.12158  0.27086  0.29183  Biso   1.000  O
  O17      1.0000 0.87842  0.27086  0.79183  Biso   1.000  O
  O18      1.0000 0.62158  0.22914  0.29183  Biso   1.000  O
  O19      1.0000 0.12158  0.27086  0.70817  Biso   1.000  O
  O20      1.0000 0.37842  0.22914  0.20817  Biso   1.000  O
  O21      1.0000 0.58488  0.25979  0.00000  Biso   1.000  O
  O22      1.0000 0.91513  0.24021  0.50000  Biso   1.000  O
  O23      1.0000 0.41513  0.25979  0.50000  Biso   1.000  O
  O24      1.0000 0.08488  0.24021  0.00000  Biso   1.000  O
  O25      1.0000 0.67448  0.14105  0.21224  Biso   1.000  O
  O26      1.0000 0.82552  0.35896  0.71224  Biso   1.000  O
  O27      1.0000 0.32552  0.14105  0.28776  Biso   1.000  O
  O28      1.0000 0.17448  0.35896  0.78776  Biso   1.000  O
  O29      1.0000 0.82552  0.35896  0.28776  Biso   1.000  O
  O30      1.0000 0.67448  0.14105  0.78776  Biso   1.000  O
  O31      1.0000 0.17448  0.35896  0.21224  Biso   1.000  O
  O32      1.0000 0.32552  0.14105  0.71224  Biso   1.000  O
  O33      1.0000 0.00000  0.34108  0.25000  Biso   1.000  O
  O34      1.0000 0.50000  0.15892  0.75000  Biso   1.000  O
  O35      1.0000 0.50000  0.15892  0.25000  Biso   1.000  O
  O36      1.0000 0.00000  0.34108  0.75000  Biso   1.000  O
  O37      1.0000 0.60905  0.15738  0.50000  Biso   1.000  O
  O38      1.0000 0.89095  0.34262  0.00000  Biso   1.000  O
  O39      1.0000 0.39095  0.15738  0.00000  Biso   1.000  O
  O40      1.0000 0.10905  0.34262  0.50000  Biso   1.000  O
  O41      1.0000 0.80509  0.15539  0.00000  Biso   1.000  O
  O42      1.0000 0.69491  0.34461  0.50000  Biso   1.000  O
  O43      1.0000 0.19491  0.15539  0.50000  Biso   1.000  O
  O44      1.0000 0.30509  0.34461  0.00000  Biso   1.000  O
  O45      1.0000 0.82503  0.08985  0.77209  Biso   1.000  O
  O46      1.0000 0.67497  0.41015  0.27209  Biso   1.000  O
  O47      1.0000 0.17497  0.08985  0.72791  Biso   1.000  O
  O48      1.0000 0.32503  0.41015  0.22791  Biso   1.000  O
  O49      1.0000 0.67497  0.41015  0.72791  Biso   1.000  O
  O50      1.0000 0.82503  0.08985  0.22791  Biso   1.000  O
  O51      1.0000 0.32503  0.41015  0.77209  Biso   1.000  O
  O52      1.0000 0.17497  0.08985  0.27209  Biso   1.000  O
  O53      1.0000 0.50000  0.42900  0.75000  Biso   1.000  O
  O54      1.0000 0.00000  0.07100  0.25000  Biso   1.000  O
  O55      1.0000 0.00000  0.07100  0.75000  Biso   1.000  O
  O56      1.0000 0.50000  0.42900  0.25000  Biso   1.000  O
  O57      1.0000 0.10716  0.05820  0.00000  Biso   1.000  O
  O58      1.0000 0.39284  0.44180  0.50000  Biso   1.000  O
  O59      1.0000 0.89284  0.05820  0.50000  Biso   1.000  O
  O60      1.0000 0.60716  0.44180  0.00000  Biso   1.000  O
  O61      1.0000 0.87895  0.00000  0.25000  Biso   1.000  O
  O62      1.0000 0.12105  0.00000  0.25000  Biso   1.000  O
  O63      1.0000 0.12105  0.00000  0.75000  Biso   1.000  O
  O64      1.0000 0.87895  0.00000  0.75000  Biso   1.000  O
  O65      1.0000 0.00000  0.79806  0.25000  Biso   1.000  O
  O66      1.0000 0.50000  0.70194  0.75000  Biso   1.000  O
  O67      1.0000 0.50000  0.70194  0.25000  Biso   1.000  O
  O68      1.0000 0.00000  0.79806  0.75000  Biso   1.000  O
  O69      1.0000 0.17285  0.81668  0.29963  Biso   1.000  O
  O70      1.0000 0.32715  0.68333  0.79963  Biso   1.000  O
  O71      1.0000 0.82715  0.81668  0.20037  Biso   1.000  O
  O72      1.0000 0.67285  0.68333  0.70037  Biso   1.000  O
  O73      1.0000 0.32715  0.68333  0.20037  Biso   1.000  O
  O74      1.0000 0.17285  0.81668  0.70037  Biso   1.000  O
  O75      1.0000 0.67285  0.68333  0.29963  Biso   1.000  O
  O76      1.0000 0.82715  0.81668  0.79963  Biso   1.000  O
  O77      1.0000 0.12158  0.72914  0.20817  Biso   1.000  O
  O78      1.0000 0.37842  0.77086  0.70817  Biso   1.000  O
  O79      1.0000 0.87842  0.72914  0.29183  Biso   1.000  O
  O80      1.0000 0.62158  0.77086  0.79183  Biso   1.000  O
  O81      1.0000 0.37842  0.77086  0.29183  Biso   1.000  O
  O82      1.0000 0.12158  0.72914  0.79183  Biso   1.000  O
  O83      1.0000 0.62158  0.77086  0.20817  Biso   1.000  O
  O84      1.0000 0.87842  0.72914  0.70817  Biso   1.000  O
  O85      1.0000 0.08488  0.75979  0.50000  Biso   1.000  O
  O86      1.0000 0.41513  0.74021  0.00000  Biso   1.000  O
  O87      1.0000 0.91513  0.75979  0.00000  Biso   1.000  O
  O88      1.0000 0.58488  0.74021  0.50000  Biso   1.000  O
  O89      1.0000 0.17448  0.64105  0.71224  Biso   1.000  O
  O90      1.0000 0.32552  0.85896  0.21224  Biso   1.000  O
  O91      1.0000 0.82552  0.64105  0.78776  Biso   1.000  O
  O92      1.0000 0.67448  0.85896  0.28776  Biso   1.000  O
  O93      1.0000 0.32552  0.85896  0.78776  Biso   1.000  O
  O94      1.0000 0.17448  0.64105  0.28776  Biso   1.000  O
  O95      1.0000 0.67448  0.85896  0.71224  Biso   1.000  O
  O96      1.0000 0.82552  0.64105  0.21224  Biso   1.000  O
  O97      1.0000 0.50000  0.84108  0.75000  Biso   1.000  O
  O98      1.0000 0.00000  0.65892  0.25000  Biso   1.000  O
  O99      1.0000 0.00000  0.65892  0.75000  Biso   1.000  O
  O100     1.0000 0.50000  0.84108  0.25000  Biso   1.000  O
  O101     1.0000 0.10905  0.65738  0.00000  Biso   1.000  O
  O102     1.0000 0.39095  0.84262  0.50000  Biso   1.000  O
  O103     1.0000 0.89095  0.65738  0.50000  Biso   1.000  O
  O104     1.0000 0.60905  0.84262  0.00000  Biso   1.000  O
  O105     1.0000 0.30509  0.65539  0.50000  Biso   1.000  O
  O106     1.0000 0.19491  0.84461  0.00000  Biso   1.000  O
  O107     1.0000 0.69491  0.65539  0.00000  Biso   1.000  O
  O108     1.0000 0.80509  0.84461  0.50000  Biso   1.000  O
  O109     1.0000 0.32503  0.58985  0.27209  Biso   1.000  O
  O110     1.0000 0.17497  0.91015  0.77209  Biso   1.000  O
  O111     1.0000 0.67497  0.58985  0.22791  Biso   1.000  O
  O112     1.0000 0.82503  0.91015  0.72791  Biso   1.000  O
  O113     1.0000 0.17497  0.91015  0.22791  Biso   1.000  O
  O114     1.0000 0.32503  0.58985  0.72791  Biso   1.000  O
  O115     1.0000 0.82503  0.91015  0.27209  Biso   1.000  O
  O116     1.0000 0.67497  0.58985  0.77209  Biso   1.000  O
  O117     1.0000 0.00000  0.92900  0.25000  Biso   1.000  O
  O118     1.0000 0.50000  0.57100  0.75000  Biso   1.000  O
  O119     1.0000 0.50000  0.57100  0.25000  Biso   1.000  O
  O120     1.0000 0.00000  0.92900  0.75000  Biso   1.000  O
  O121     1.0000 0.60716  0.55820  0.50000  Biso   1.000  O
  O122     1.0000 0.89284  0.94180  0.00000  Biso   1.000  O
  O123     1.0000 0.39284  0.55820  0.00000  Biso   1.000  O
  O124     1.0000 0.10716  0.94180  0.50000  Biso   1.000  O
  O125     1.0000 0.37895  0.50000  0.75000  Biso   1.000  O
  O126     1.0000 0.62105  0.50000  0.75000  Biso   1.000  O
  O127     1.0000 0.62105  0.50000  0.25000  Biso   1.000  O
  O128     1.0000 0.37895  0.50000  0.25000  Biso   1.000  O
  Ir1      1.0000 0.59538  0.27597  0.81411  Biso   1.000  Ir
  Ir2      1.0000 0.90462  0.22403  0.31411  Biso   1.000  Ir
  Ir3      1.0000 0.40462  0.27597  0.68589  Biso   1.000  Ir
  Ir4      1.0000 0.09538  0.22403  0.18589  Biso   1.000  Ir
  Ir5      1.0000 0.90462  0.22403  0.68589  Biso   1.000  Ir
  Ir6      1.0000 0.59538  0.27597  0.18589  Biso   1.000  Ir
  Ir7      1.0000 0.09538  0.22403  0.81411  Biso   1.000  Ir
  Ir8      1.0000 0.40462  0.27597  0.31411  Biso   1.000  Ir
  Ir9      1.0000 0.60061  0.17170  0.31338  Biso   1.000  Ir
  Ir10     1.0000 0.89939  0.32830  0.81338  Biso   1.000  Ir
  Ir11     1.0000 0.39939  0.17170  0.18662  Biso   1.000  Ir
  Ir12     1.0000 0.10061  0.32830  0.68662  Biso   1.000  Ir
  Ir13     1.0000 0.89939  0.32830  0.18662  Biso   1.000  Ir
  Ir14     1.0000 0.60061  0.17170  0.68662  Biso   1.000  Ir
  Ir15     1.0000 0.10061  0.32830  0.31338  Biso   1.000  Ir
  Ir16     1.0000 0.39939  0.17170  0.81338  Biso   1.000  Ir
  Ir17     1.0000 0.78310  0.14208  0.81518  Biso   1.000  Ir
  Ir18     1.0000 0.71690  0.35792  0.31518  Biso   1.000  Ir
  Ir19     1.0000 0.21690  0.14208  0.68482  Biso   1.000  Ir
  Ir20     1.0000 0.28310  0.35792  0.18482  Biso   1.000  Ir
  Ir21     1.0000 0.71690  0.35792  0.68482  Biso   1.000  Ir
  Ir22     1.0000 0.78310  0.14208  0.18482  Biso   1.000  Ir
  Ir23     1.0000 0.28310  0.35792  0.81518  Biso   1.000  Ir
  Ir24     1.0000 0.21690  0.14208  0.31518  Biso   1.000  Ir
  Ir25     1.0000 0.10044  0.05463  0.80754  Biso   1.000  Ir
  Ir26     1.0000 0.39956  0.44537  0.30754  Biso   1.000  Ir
  Ir27     1.0000 0.89956  0.05463  0.69246  Biso   1.000  Ir
  Ir28     1.0000 0.60044  0.44537  0.19246  Biso   1.000  Ir
  Ir29     1.0000 0.39956  0.44537  0.69246  Biso   1.000  Ir
  Ir30     1.0000 0.10044  0.05463  0.19246  Biso   1.000  Ir
  Ir31     1.0000 0.60044  0.44537  0.80754  Biso   1.000  Ir
  Ir32     1.0000 0.89956  0.05463  0.30754  Biso   1.000  Ir
  Ir33     1.0000 0.09538  0.77597  0.31411  Biso   1.000  Ir
  Ir34     1.0000 0.40462  0.72403  0.81411  Biso   1.000  Ir
  Ir35     1.0000 0.90462  0.77597  0.18589  Biso   1.000  Ir
  Ir36     1.0000 0.59538  0.72403  0.68589  Biso   1.000  Ir
  Ir37     1.0000 0.40462  0.72403  0.18589  Biso   1.000  Ir
  Ir38     1.0000 0.09538  0.77597  0.68589  Biso   1.000  Ir
  Ir39     1.0000 0.59538  0.72403  0.31411  Biso   1.000  Ir
  Ir40     1.0000 0.90462  0.77597  0.81411  Biso   1.000  Ir
  Ir41     1.0000 0.10061  0.67170  0.81338  Biso   1.000  Ir
  Ir42     1.0000 0.39939  0.82830  0.31338  Biso   1.000  Ir
  Ir43     1.0000 0.89939  0.67170  0.68662  Biso   1.000  Ir
  Ir44     1.0000 0.60061  0.82830  0.18662  Biso   1.000  Ir
  Ir45     1.0000 0.39939  0.82830  0.68662  Biso   1.000  Ir
  Ir46     1.0000 0.10061  0.67170  0.18662  Biso   1.000  Ir
  Ir47     1.0000 0.60061  0.82830  0.81338  Biso   1.000  Ir
  Ir48     1.0000 0.89939  0.67170  0.31338  Biso   1.000  Ir
  Ir49     1.0000 0.28310  0.64208  0.31518  Biso   1.000  Ir
  Ir50     1.0000 0.21690  0.85792  0.81518  Biso   1.000  Ir
  Ir51     1.0000 0.71690  0.64208  0.18482  Biso   1.000  Ir
  Ir52     1.0000 0.78310  0.85792  0.68482  Biso   1.000  Ir
  Ir53     1.0000 0.21690  0.85792  0.18482  Biso   1.000  Ir
  Ir54     1.0000 0.28310  0.64208  0.68482  Biso   1.000  Ir
  Ir55     1.0000 0.78310  0.85792  0.31518  Biso   1.000  Ir
  Ir56     1.0000 0.71690  0.64208  0.81518  Biso   1.000  Ir
  Ir57     1.0000 0.60044  0.55463  0.30754  Biso   1.000  Ir
  Ir58     1.0000 0.89956  0.94537  0.80754  Biso   1.000  Ir
  Ir59     1.0000 0.39956  0.55463  0.19246  Biso   1.000  Ir
  Ir60     1.0000 0.10044  0.94537  0.69246  Biso   1.000  Ir
  Ir61     1.0000 0.89956  0.94537  0.19246  Biso   1.000  Ir
  Ir62     1.0000 0.60044  0.55463  0.69246  Biso   1.000  Ir
  Ir63     1.0000 0.10044  0.94537  0.30754  Biso   1.000  Ir
  Ir64     1.0000 0.39956  0.55463  0.80754  Biso   1.000  Ir
