data_image0
_cell_length_a       16.2734
_cell_length_b       25.9217
_cell_length_c       15.4498
_cell_angle_alpha    90
_cell_angle_beta     90
_cell_angle_gamma    90

_symmetry_space_group_name_H-M    "P 1"
_symmetry_int_tables_number       1

loop_
  _symmetry_equiv_pos_as_xyz
  'x, y, z'

loop_
  _atom_site_label
  _atom_site_occupancy
  _atom_site_fract_x
  _atom_site_fract_y
  _atom_site_fract_z
  _atom_site_thermal_displace_type
  _atom_site_B_iso_or_equiv
  _atom_site_type_symbol
  O1       1.0000 0.82760  0.90138  0.89628  Biso   1.000  O
  O2       1.0000 0.17240  0.09862  0.89628  Biso   1.000  O
  O3       1.0000 0.17240  0.90138  0.10372  Biso   1.000  O
  O4       1.0000 0.82760  0.09862  0.10372  Biso   1.000  O
  O5       1.0000 0.17240  0.09862  0.10372  Biso   1.000  O
  O6       1.0000 0.82760  0.90138  0.10372  Biso   1.000  O
  O7       1.0000 0.82760  0.09862  0.89628  Biso   1.000  O
  O8       1.0000 0.17240  0.90138  0.89628  Biso   1.000  O
  O9       1.0000 0.88927  0.00000  0.00000  Biso   1.000  O
  O10      1.0000 0.11073  0.00000  0.00000  Biso   1.000  O
  O11      1.0000 0.50000  0.39744  0.00000  Biso   1.000  O
  O12      1.0000 0.50000  0.60256  0.00000  Biso   1.000  O
  O13      1.0000 0.87249  0.90819  0.50000  Biso   1.000  O
  O14      1.0000 0.12752  0.09181  0.50000  Biso   1.000  O
  O15      1.0000 0.12752  0.90819  0.50000  Biso   1.000  O
  O16      1.0000 0.87249  0.09181  0.50000  Biso   1.000  O
  O17      1.0000 0.50000  0.42028  0.65860  Biso   1.000  O
  O18      1.0000 0.50000  0.57972  0.65860  Biso   1.000  O
  O19      1.0000 0.50000  0.42028  0.34140  Biso   1.000  O
  O20      1.0000 0.50000  0.57972  0.34140  Biso   1.000  O
  O21      1.0000 0.81476  0.88176  0.69223  Biso   1.000  O
  O22      1.0000 0.18525  0.11824  0.69223  Biso   1.000  O
  O23      1.0000 0.18525  0.88176  0.30777  Biso   1.000  O
  O24      1.0000 0.81476  0.11824  0.30777  Biso   1.000  O
  O25      1.0000 0.18525  0.11824  0.30777  Biso   1.000  O
  O26      1.0000 0.81476  0.88176  0.30777  Biso   1.000  O
  O27      1.0000 0.81476  0.11824  0.69223  Biso   1.000  O
  O28      1.0000 0.18525  0.88176  0.69223  Biso   1.000  O
  O29      1.0000 0.84884  0.00000  0.63878  Biso   1.000  O
  O30      1.0000 0.15116  0.00000  0.63878  Biso   1.000  O
  O31      1.0000 0.15116  0.00000  0.36122  Biso   1.000  O
  O32      1.0000 0.84884  0.00000  0.36122  Biso   1.000  O
  O33      1.0000 0.37427  0.28996  0.81828  Biso   1.000  O
  O34      1.0000 0.62573  0.71004  0.81828  Biso   1.000  O
  O35      1.0000 0.62573  0.28996  0.18172  Biso   1.000  O
  O36      1.0000 0.37427  0.71004  0.18172  Biso   1.000  O
  O37      1.0000 0.62573  0.71004  0.18172  Biso   1.000  O
  O38      1.0000 0.37427  0.28996  0.18172  Biso   1.000  O
  O39      1.0000 0.37427  0.71004  0.81828  Biso   1.000  O
  O40      1.0000 0.62573  0.28996  0.81828  Biso   1.000  O
  O41      1.0000 0.68505  0.82829  0.82067  Biso   1.000  O
  O42      1.0000 0.31495  0.17171  0.82067  Biso   1.000  O
  O43      1.0000 0.31495  0.82829  0.17933  Biso   1.000  O
  O44      1.0000 0.68505  0.17171  0.17933  Biso   1.000  O
  O45      1.0000 0.31495  0.17171  0.17933  Biso   1.000  O
  O46      1.0000 0.68505  0.82829  0.17933  Biso   1.000  O
  O47      1.0000 0.68505  0.17171  0.82067  Biso   1.000  O
  O48      1.0000 0.31495  0.82829  0.82067  Biso   1.000  O
  O49      1.0000 0.50000  0.20009  0.87269  Biso   1.000  O
  O50      1.0000 0.50000  0.79991  0.87269  Biso   1.000  O
  O51      1.0000 0.50000  0.20009  0.12731  Biso   1.000  O
  O52      1.0000 0.50000  0.79991  0.12731  Biso   1.000  O
  O53      1.0000 0.35129  0.23105  0.00000  Biso   1.000  O
  O54      1.0000 0.64871  0.76895  0.00000  Biso   1.000  O
  O55      1.0000 0.64871  0.23105  0.00000  Biso   1.000  O
  O56      1.0000 0.35129  0.76895  0.00000  Biso   1.000  O
  O57      1.0000 0.32760  0.40138  0.89628  Biso   1.000  O
  O58      1.0000 0.67240  0.59862  0.89628  Biso   1.000  O
  O59      1.0000 0.67240  0.40138  0.10372  Biso   1.000  O
  O60      1.0000 0.32760  0.59862  0.10372  Biso   1.000  O
  O61      1.0000 0.67240  0.59862  0.10372  Biso   1.000  O
  O62      1.0000 0.32760  0.40138  0.10372  Biso   1.000  O
  O63      1.0000 0.32760  0.59862  0.89628  Biso   1.000  O
  O64      1.0000 0.67240  0.40138  0.89628  Biso   1.000  O
  O65      1.0000 0.38927  0.50000  0.00000  Biso   1.000  O
  O66      1.0000 0.61073  0.50000  0.00000  Biso   1.000  O
  O67      1.0000 0.00000  0.89744  0.00000  Biso   1.000  O
  O68      1.0000 0.00000  0.10256  0.00000  Biso   1.000  O
  O69      1.0000 0.37249  0.40819  0.50000  Biso   1.000  O
  O70      1.0000 0.62752  0.59181  0.50000  Biso   1.000  O
  O71      1.0000 0.62752  0.40819  0.50000  Biso   1.000  O
  O72      1.0000 0.37249  0.59181  0.50000  Biso   1.000  O
  O73      1.0000 0.00000  0.92028  0.65860  Biso   1.000  O
  O74      1.0000 0.00000  0.07972  0.65860  Biso   1.000  O
  O75      1.0000 0.00000  0.92028  0.34140  Biso   1.000  O
  O76      1.0000 0.00000  0.07972  0.34140  Biso   1.000  O
  O77      1.0000 0.31476  0.38176  0.69223  Biso   1.000  O
  O78      1.0000 0.68525  0.61824  0.69223  Biso   1.000  O
  O79      1.0000 0.68525  0.38176  0.30777  Biso   1.000  O
  O80      1.0000 0.31476  0.61824  0.30777  Biso   1.000  O
  O81      1.0000 0.68525  0.61824  0.30777  Biso   1.000  O
  O82      1.0000 0.31476  0.38176  0.30777  Biso   1.000  O
  O83      1.0000 0.31476  0.61824  0.69223  Biso   1.000  O
  O84      1.0000 0.68525  0.38176  0.69223  Biso   1.000  O
  O85      1.0000 0.34884  0.50000  0.63878  Biso   1.000  O
  O86      1.0000 0.65116  0.50000  0.63878  Biso   1.000  O
  O87      1.0000 0.65116  0.50000  0.36122  Biso   1.000  O
  O88      1.0000 0.34884  0.50000  0.36122  Biso   1.000  O
  O89      1.0000 0.87427  0.78996  0.81828  Biso   1.000  O
  O90      1.0000 0.12573  0.21004  0.81828  Biso   1.000  O
  O91      1.0000 0.12573  0.78996  0.18172  Biso   1.000  O
  O92      1.0000 0.87427  0.21004  0.18172  Biso   1.000  O
  O93      1.0000 0.12573  0.21004  0.18172  Biso   1.000  O
  O94      1.0000 0.87427  0.78996  0.18172  Biso   1.000  O
  O95      1.0000 0.87427  0.21004  0.81828  Biso   1.000  O
  O96      1.0000 0.12573  0.78996  0.81828  Biso   1.000  O
  O97      1.0000 0.18505  0.32829  0.82067  Biso   1.000  O
  O98      1.0000 0.81495  0.67171  0.82067  Biso   1.000  O
  O99      1.0000 0.81495  0.32829  0.17933  Biso   1.000  O
  O100     1.0000 0.18505  0.67171  0.17933  Biso   1.000  O
  O101     1.0000 0.81495  0.67171  0.17933  Biso   1.000  O
  O102     1.0000 0.18505  0.32829  0.17933  Biso   1.000  O
  O103     1.0000 0.18505  0.67171  0.82067  Biso   1.000  O
  O104     1.0000 0.81495  0.32829  0.82067  Biso   1.000  O
  O105     1.0000 0.00000  0.70009  0.87269  Biso   1.000  O
  O106     1.0000 0.00000  0.29991  0.87269  Biso   1.000  O
  O107     1.0000 0.00000  0.70009  0.12731  Biso   1.000  O
  O108     1.0000 0.00000  0.29991  0.12731  Biso   1.000  O
  O109     1.0000 0.85129  0.73105  0.00000  Biso   1.000  O
  O110     1.0000 0.14871  0.26895  0.00000  Biso   1.000  O
  O111     1.0000 0.14871  0.73105  0.00000  Biso   1.000  O
  O112     1.0000 0.85129  0.26895  0.00000  Biso   1.000  O
  Ir1      1.0000 0.88393  0.92769  0.62248  Biso   1.000  Ir
  Ir2      1.0000 0.11607  0.07231  0.62248  Biso   1.000  Ir
  Ir3      1.0000 0.11607  0.92769  0.37752  Biso   1.000  Ir
  Ir4      1.0000 0.88393  0.07231  0.37752  Biso   1.000  Ir
  Ir5      1.0000 0.11607  0.07231  0.37752  Biso   1.000  Ir
  Ir6      1.0000 0.88393  0.92769  0.37752  Biso   1.000  Ir
  Ir7      1.0000 0.88393  0.07231  0.62248  Biso   1.000  Ir
  Ir8      1.0000 0.11607  0.92769  0.62248  Biso   1.000  Ir
  Ir9      1.0000 0.80062  0.85028  0.80700  Biso   1.000  Ir
  Ir10     1.0000 0.19938  0.14972  0.80700  Biso   1.000  Ir
  Ir11     1.0000 0.19938  0.85028  0.19300  Biso   1.000  Ir
  Ir12     1.0000 0.80062  0.14972  0.19300  Biso   1.000  Ir
  Ir13     1.0000 0.19938  0.14972  0.19300  Biso   1.000  Ir
  Ir14     1.0000 0.80062  0.85028  0.19300  Biso   1.000  Ir
  Ir15     1.0000 0.80062  0.14972  0.80700  Biso   1.000  Ir
  Ir16     1.0000 0.19938  0.85028  0.80700  Biso   1.000  Ir
  Ir17     1.0000 0.38512  0.22318  0.87784  Biso   1.000  Ir
  Ir18     1.0000 0.61488  0.77682  0.87784  Biso   1.000  Ir
  Ir19     1.0000 0.61488  0.22318  0.12216  Biso   1.000  Ir
  Ir20     1.0000 0.38512  0.77682  0.12216  Biso   1.000  Ir
  Ir21     1.0000 0.61488  0.77682  0.12216  Biso   1.000  Ir
  Ir22     1.0000 0.38512  0.22318  0.12216  Biso   1.000  Ir
  Ir23     1.0000 0.38512  0.77682  0.87784  Biso   1.000  Ir
  Ir24     1.0000 0.61488  0.22318  0.87784  Biso   1.000  Ir
  Ir25     1.0000 0.88616  0.92475  0.00000  Biso   1.000  Ir
  Ir26     1.0000 0.11384  0.07525  0.00000  Biso   1.000  Ir
  Ir27     1.0000 0.11384  0.92475  0.00000  Biso   1.000  Ir
  Ir28     1.0000 0.88616  0.07525  0.00000  Biso   1.000  Ir
  Ir29     1.0000 0.38393  0.42769  0.62248  Biso   1.000  Ir
  Ir30     1.0000 0.61607  0.57231  0.62248  Biso   1.000  Ir
  Ir31     1.0000 0.61607  0.42769  0.37752  Biso   1.000  Ir
  Ir32     1.0000 0.38393  0.57231  0.37752  Biso   1.000  Ir
  Ir33     1.0000 0.61607  0.57231  0.37752  Biso   1.000  Ir
  Ir34     1.0000 0.38393  0.42769  0.37752  Biso   1.000  Ir
  Ir35     1.0000 0.38393  0.57231  0.62248  Biso   1.000  Ir
  Ir36     1.0000 0.61607  0.42769  0.62248  Biso   1.000  Ir
  Ir37     1.0000 0.30062  0.35028  0.80700  Biso   1.000  Ir
  Ir38     1.0000 0.69938  0.64972  0.80700  Biso   1.000  Ir
  Ir39     1.0000 0.69938  0.35028  0.19300  Biso   1.000  Ir
  Ir40     1.0000 0.30062  0.64972  0.19300  Biso   1.000  Ir
  Ir41     1.0000 0.69938  0.64972  0.19300  Biso   1.000  Ir
  Ir42     1.0000 0.30062  0.35028  0.19300  Biso   1.000  Ir
  Ir43     1.0000 0.30062  0.64972  0.80700  Biso   1.000  Ir
  Ir44     1.0000 0.69938  0.35028  0.80700  Biso   1.000  Ir
  Ir45     1.0000 0.88512  0.72318  0.87784  Biso   1.000  Ir
  Ir46     1.0000 0.11488  0.27682  0.87784  Biso   1.000  Ir
  Ir47     1.0000 0.11488  0.72318  0.12216  Biso   1.000  Ir
  Ir48     1.0000 0.88512  0.27682  0.12216  Biso   1.000  Ir
  Ir49     1.0000 0.11488  0.27682  0.12216  Biso   1.000  Ir
  Ir50     1.0000 0.88512  0.72318  0.12216  Biso   1.000  Ir
  Ir51     1.0000 0.88512  0.27682  0.87784  Biso   1.000  Ir
  Ir52     1.0000 0.11488  0.72318  0.87784  Biso   1.000  Ir
  Ir53     1.0000 0.38616  0.42475  0.00000  Biso   1.000  Ir
  Ir54     1.0000 0.61384  0.57525  0.00000  Biso   1.000  Ir
  Ir55     1.0000 0.61384  0.42475  0.00000  Biso   1.000  Ir
  Ir56     1.0000 0.38616  0.57525  0.00000  Biso   1.000  Ir
