data_image0
_cell_length_a       10.7685
_cell_length_b       9.71098
_cell_length_c       10.7721
_cell_angle_alpha    90
_cell_angle_beta     90.3175
_cell_angle_gamma    90

_symmetry_space_group_name_H-M    "P 1"
_symmetry_int_tables_number       1

loop_
  _symmetry_equiv_pos_as_xyz
  'x, y, z'

loop_
  _atom_site_label
  _atom_site_occupancy
  _atom_site_fract_x
  _atom_site_fract_y
  _atom_site_fract_z
  _atom_site_thermal_displace_type
  _atom_site_B_iso_or_equiv
  _atom_site_type_symbol
  O1       1.0000 0.49879  0.18545  0.40022  Biso   1.000  O
  O2       1.0000 0.50121  0.68545  0.09978  Biso   1.000  O
  O3       1.0000 0.50121  0.81454  0.59978  Biso   1.000  O
  O4       1.0000 0.49879  0.31455  0.90022  Biso   1.000  O
  O5       1.0000 0.75079  0.82243  0.00359  Biso   1.000  O
  O6       1.0000 0.24921  0.32243  0.49641  Biso   1.000  O
  O7       1.0000 0.24921  0.17757  0.99642  Biso   1.000  O
  O8       1.0000 0.75079  0.67757  0.50358  Biso   1.000  O
  O9       1.0000 0.27128  0.73266  0.28170  Biso   1.000  O
  O10      1.0000 0.72872  0.23266  0.21830  Biso   1.000  O
  O11      1.0000 0.72873  0.26734  0.71830  Biso   1.000  O
  O12      1.0000 0.27128  0.76734  0.78170  Biso   1.000  O
  O13      1.0000 0.62765  0.57219  0.76077  Biso   1.000  O
  O14      1.0000 0.37235  0.07219  0.73922  Biso   1.000  O
  O15      1.0000 0.37235  0.42781  0.23922  Biso   1.000  O
  O16      1.0000 0.62765  0.92781  0.26077  Biso   1.000  O
  O17      1.0000 0.00886  0.29574  0.13343  Biso   1.000  O
  O18      1.0000 0.99114  0.79574  0.36657  Biso   1.000  O
  O19      1.0000 0.99114  0.70426  0.86657  Biso   1.000  O
  O20      1.0000 0.00886  0.20426  0.63343  Biso   1.000  O
  O21      1.0000 0.77455  0.41794  0.98032  Biso   1.000  O
  O22      1.0000 0.22545  0.91794  0.51968  Biso   1.000  O
  O23      1.0000 0.22545  0.58206  0.01968  Biso   1.000  O
  O24      1.0000 0.77455  0.08206  0.48032  Biso   1.000  O
  O25      1.0000 0.15681  0.03882  0.25155  Biso   1.000  O
  O26      1.0000 0.84319  0.53882  0.24845  Biso   1.000  O
  O27      1.0000 0.84319  0.96118  0.74845  Biso   1.000  O
  O28      1.0000 0.15681  0.46118  0.75155  Biso   1.000  O
  O29      1.0000 0.50000  0.00000  0.00000  Biso   1.000  O
  O30      1.0000 0.50000  0.50000  0.50000  Biso   1.000  O
  O31      1.0000 0.00000  0.00000  0.00000  Biso   1.000  O
  O32      1.0000 0.00000  0.50000  0.50000  Biso   1.000  O
  Ir1      1.0000 0.16078  0.87140  0.35422  Biso   1.000  Ir
  Ir2      1.0000 0.83922  0.37140  0.14578  Biso   1.000  Ir
  Ir3      1.0000 0.83923  0.12860  0.64578  Biso   1.000  Ir
  Ir4      1.0000 0.16078  0.62860  0.85422  Biso   1.000  Ir
  Ir5      1.0000 0.10402  0.37220  0.59538  Biso   1.000  Ir
  Ir6      1.0000 0.89598  0.87220  0.90462  Biso   1.000  Ir
  Ir7      1.0000 0.89598  0.62780  0.40462  Biso   1.000  Ir
  Ir8      1.0000 0.10402  0.12780  0.09538  Biso   1.000  Ir
  Ir9      1.0000 0.59500  0.85951  0.09053  Biso   1.000  Ir
  Ir10     1.0000 0.40501  0.35951  0.40947  Biso   1.000  Ir
  Ir11     1.0000 0.40501  0.14049  0.90947  Biso   1.000  Ir
  Ir12     1.0000 0.59500  0.64049  0.59053  Biso   1.000  Ir
  Ir13     1.0000 0.65736  0.39299  0.84195  Biso   1.000  Ir
  Ir14     1.0000 0.34264  0.89299  0.65804  Biso   1.000  Ir
  Ir15     1.0000 0.34264  0.60701  0.15804  Biso   1.000  Ir
  Ir16     1.0000 0.65736  0.10701  0.34195  Biso   1.000  Ir
