data_image0
_cell_length_a       5.49652
_cell_length_b       4.21482
_cell_length_c       7.87937
_cell_angle_alpha    90
_cell_angle_beta     107.684
_cell_angle_gamma    90

_symmetry_space_group_name_H-M    "P 1"
_symmetry_int_tables_number       1

loop_
  _symmetry_equiv_pos_as_xyz
  'x, y, z'

loop_
  _atom_site_label
  _atom_site_occupancy
  _atom_site_fract_x
  _atom_site_fract_y
  _atom_site_fract_z
  _atom_site_thermal_displace_type
  _atom_site_B_iso_or_equiv
  _atom_site_type_symbol
  Ir1      1.0000 0.06448  0.25000  0.21227  Biso   1.000  Ir
  Ir2      1.0000 0.93552  0.75000  0.78773  Biso   1.000  Ir
  O1       1.0000 0.71133  0.25000  0.48229  Biso   1.000  O
  O2       1.0000 0.28867  0.75000  0.51771  Biso   1.000  O
  O3       1.0000 0.48072  0.25000  0.88006  Biso   1.000  O
  O4       1.0000 0.51928  0.75000  0.11994  Biso   1.000  O
