data_image0
_cell_length_a       5.39338
_cell_length_b       5.39338
_cell_length_c       7.67694
_cell_angle_alpha    90
_cell_angle_beta     90
_cell_angle_gamma    90

_symmetry_space_group_name_H-M    "P 1"
_symmetry_int_tables_number       1

loop_
  _symmetry_equiv_pos_as_xyz
  'x, y, z'

loop_
  _atom_site_label
  _atom_site_occupancy
  _atom_site_fract_x
  _atom_site_fract_y
  _atom_site_fract_z
  _atom_site_thermal_displace_type
  _atom_site_B_iso_or_equiv
  _atom_site_type_symbol
  Ir1      1.0000 0.33366  0.33366  0.00000  Biso   1.000  Ir
  Ir2      1.0000 0.66634  0.66634  0.50000  Biso   1.000  Ir
  Ir3      1.0000 0.16634  0.83366  0.25000  Biso   1.000  Ir
  Ir4      1.0000 0.83366  0.16634  0.75000  Biso   1.000  Ir
  O1       1.0000 0.27720  0.68521  0.03372  Biso   1.000  O
  O2       1.0000 0.72280  0.31479  0.53372  Biso   1.000  O
  O3       1.0000 0.81479  0.77720  0.28372  Biso   1.000  O
  O4       1.0000 0.18521  0.22280  0.78372  Biso   1.000  O
  O5       1.0000 0.22280  0.18521  0.21628  Biso   1.000  O
  O6       1.0000 0.77720  0.81479  0.71628  Biso   1.000  O
  O7       1.0000 0.68521  0.27720  0.96628  Biso   1.000  O
  O8       1.0000 0.31479  0.72280  0.46628  Biso   1.000  O
