data_image0
_cell_length_a       8.45306
_cell_length_b       18.207
_cell_length_c       21.0317
_cell_angle_alpha    90
_cell_angle_beta     90
_cell_angle_gamma    90

_symmetry_space_group_name_H-M    "P 1"
_symmetry_int_tables_number       1

loop_
  _symmetry_equiv_pos_as_xyz
  'x, y, z'

loop_
  _atom_site_label
  _atom_site_occupancy
  _atom_site_fract_x
  _atom_site_fract_y
  _atom_site_fract_z
  _atom_site_thermal_displace_type
  _atom_site_B_iso_or_equiv
  _atom_site_type_symbol
  O1       1.0000 0.91584  0.67891  0.36891  Biso   1.000  O
  O2       1.0000 0.08416  0.32109  0.86891  Biso   1.000  O
  O3       1.0000 0.08416  0.17891  0.13109  Biso   1.000  O
  O4       1.0000 0.91584  0.82109  0.63109  Biso   1.000  O
  O5       1.0000 0.08416  0.32109  0.63109  Biso   1.000  O
  O6       1.0000 0.91584  0.67891  0.13109  Biso   1.000  O
  O7       1.0000 0.91584  0.82109  0.86891  Biso   1.000  O
  O8       1.0000 0.08416  0.17891  0.36891  Biso   1.000  O
  O9       1.0000 0.29425  0.68178  0.38710  Biso   1.000  O
  O10      1.0000 0.70574  0.31822  0.88711  Biso   1.000  O
  O11      1.0000 0.70574  0.18178  0.11290  Biso   1.000  O
  O12      1.0000 0.29425  0.81822  0.61289  Biso   1.000  O
  O13      1.0000 0.70574  0.31822  0.61289  Biso   1.000  O
  O14      1.0000 0.29425  0.68178  0.11290  Biso   1.000  O
  O15      1.0000 0.29425  0.81822  0.88711  Biso   1.000  O
  O16      1.0000 0.70574  0.18178  0.38710  Biso   1.000  O
  O17      1.0000 0.10543  0.83275  0.35912  Biso   1.000  O
  O18      1.0000 0.89458  0.16725  0.85912  Biso   1.000  O
  O19      1.0000 0.89458  0.33275  0.14088  Biso   1.000  O
  O20      1.0000 0.10543  0.66725  0.64088  Biso   1.000  O
  O21      1.0000 0.89458  0.16725  0.64088  Biso   1.000  O
  O22      1.0000 0.10543  0.83275  0.14088  Biso   1.000  O
  O23      1.0000 0.10543  0.66725  0.85912  Biso   1.000  O
  O24      1.0000 0.89458  0.33275  0.35912  Biso   1.000  O
  O25      1.0000 0.14406  0.71077  0.25000  Biso   1.000  O
  O26      1.0000 0.85594  0.28923  0.75000  Biso   1.000  O
  O27      1.0000 0.85594  0.21077  0.25000  Biso   1.000  O
  O28      1.0000 0.14406  0.78923  0.75000  Biso   1.000  O
  O29      1.0000 0.08278  0.00408  0.39504  Biso   1.000  O
  O30      1.0000 0.91722  0.99592  0.89504  Biso   1.000  O
  O31      1.0000 0.91722  0.50408  0.10496  Biso   1.000  O
  O32      1.0000 0.08278  0.49592  0.60496  Biso   1.000  O
  O33      1.0000 0.91722  0.99592  0.60496  Biso   1.000  O
  O34      1.0000 0.08278  0.00408  0.10496  Biso   1.000  O
  O35      1.0000 0.08278  0.49592  0.89504  Biso   1.000  O
  O36      1.0000 0.91722  0.50408  0.39504  Biso   1.000  O
  O37      1.0000 0.30901  0.89854  0.47662  Biso   1.000  O
  O38      1.0000 0.69099  0.10146  0.97662  Biso   1.000  O
  O39      1.0000 0.69099  0.39854  0.02338  Biso   1.000  O
  O40      1.0000 0.30901  0.60146  0.52338  Biso   1.000  O
  O41      1.0000 0.69099  0.10146  0.52338  Biso   1.000  O
  O42      1.0000 0.30901  0.89854  0.02338  Biso   1.000  O
  O43      1.0000 0.30901  0.60146  0.97662  Biso   1.000  O
  O44      1.0000 0.69099  0.39854  0.47662  Biso   1.000  O
  O45      1.0000 0.92952  0.88146  0.48723  Biso   1.000  O
  O46      1.0000 0.07048  0.11854  0.98723  Biso   1.000  O
  O47      1.0000 0.07048  0.38146  0.01277  Biso   1.000  O
  O48      1.0000 0.92952  0.61854  0.51277  Biso   1.000  O
  O49      1.0000 0.07048  0.11854  0.51277  Biso   1.000  O
  O50      1.0000 0.92952  0.88146  0.01277  Biso   1.000  O
  O51      1.0000 0.92952  0.61854  0.98723  Biso   1.000  O
  O52      1.0000 0.07048  0.38146  0.48723  Biso   1.000  O
  O53      1.0000 0.61115  0.60054  0.43089  Biso   1.000  O
  O54      1.0000 0.38885  0.39946  0.93089  Biso   1.000  O
  O55      1.0000 0.38885  0.10054  0.06911  Biso   1.000  O
  O56      1.0000 0.61115  0.89946  0.56911  Biso   1.000  O
  O57      1.0000 0.38885  0.39946  0.56911  Biso   1.000  O
  O58      1.0000 0.61115  0.60054  0.06911  Biso   1.000  O
  O59      1.0000 0.61115  0.89946  0.93089  Biso   1.000  O
  O60      1.0000 0.38885  0.10054  0.43089  Biso   1.000  O
  O61      1.0000 0.49233  0.25000  0.00000  Biso   1.000  O
  O62      1.0000 0.50767  0.75000  0.50000  Biso   1.000  O
  O63      1.0000 0.50767  0.75000  0.00000  Biso   1.000  O
  O64      1.0000 0.49233  0.25000  0.50000  Biso   1.000  O
  Ir1      1.0000 0.11500  0.72616  0.34119  Biso   1.000  Ir
  Ir2      1.0000 0.88500  0.27384  0.84119  Biso   1.000  Ir
  Ir3      1.0000 0.88500  0.22616  0.15881  Biso   1.000  Ir
  Ir4      1.0000 0.11500  0.77384  0.65881  Biso   1.000  Ir
  Ir5      1.0000 0.88500  0.27384  0.65881  Biso   1.000  Ir
  Ir6      1.0000 0.11500  0.72616  0.15881  Biso   1.000  Ir
  Ir7      1.0000 0.11500  0.77384  0.84119  Biso   1.000  Ir
  Ir8      1.0000 0.88500  0.22616  0.34119  Biso   1.000  Ir
  Ir9      1.0000 0.10700  0.90370  0.42935  Biso   1.000  Ir
  Ir10     1.0000 0.89301  0.09630  0.92935  Biso   1.000  Ir
  Ir11     1.0000 0.89301  0.40370  0.07065  Biso   1.000  Ir
  Ir12     1.0000 0.10700  0.59630  0.57065  Biso   1.000  Ir
  Ir13     1.0000 0.89301  0.09630  0.57065  Biso   1.000  Ir
  Ir14     1.0000 0.10700  0.90370  0.07065  Biso   1.000  Ir
  Ir15     1.0000 0.10700  0.59630  0.92935  Biso   1.000  Ir
  Ir16     1.0000 0.89301  0.40370  0.42935  Biso   1.000  Ir
  Ir17     1.0000 0.84359  0.60087  0.42665  Biso   1.000  Ir
  Ir18     1.0000 0.15641  0.39913  0.92665  Biso   1.000  Ir
  Ir19     1.0000 0.15641  0.10087  0.07335  Biso   1.000  Ir
  Ir20     1.0000 0.84359  0.89913  0.57335  Biso   1.000  Ir
  Ir21     1.0000 0.15641  0.39913  0.57335  Biso   1.000  Ir
  Ir22     1.0000 0.84359  0.60087  0.07335  Biso   1.000  Ir
  Ir23     1.0000 0.84359  0.89913  0.92665  Biso   1.000  Ir
  Ir24     1.0000 0.15641  0.10087  0.42665  Biso   1.000  Ir
  Ir25     1.0000 0.42993  0.84138  0.53980  Biso   1.000  Ir
  Ir26     1.0000 0.57007  0.15862  0.03980  Biso   1.000  Ir
  Ir27     1.0000 0.57007  0.34138  0.96020  Biso   1.000  Ir
  Ir28     1.0000 0.42993  0.65862  0.46020  Biso   1.000  Ir
  Ir29     1.0000 0.57007  0.15862  0.46020  Biso   1.000  Ir
  Ir30     1.0000 0.42993  0.84138  0.96020  Biso   1.000  Ir
  Ir31     1.0000 0.42993  0.65862  0.03980  Biso   1.000  Ir
  Ir32     1.0000 0.57007  0.34138  0.53980  Biso   1.000  Ir
