data_image0
_cell_length_a       5.41703
_cell_length_b       5.41704
_cell_length_c       136.42
_cell_angle_alpha    90
_cell_angle_beta     90
_cell_angle_gamma    120

_symmetry_space_group_name_H-M    "P 1"
_symmetry_int_tables_number       1

loop_
  _symmetry_equiv_pos_as_xyz
  'x, y, z'

loop_
  _atom_site_label
  _atom_site_occupancy
  _atom_site_fract_x
  _atom_site_fract_y
  _atom_site_fract_z
  _atom_site_thermal_displace_type
  _atom_site_B_iso_or_equiv
  _atom_site_type_symbol
  Ir1      1.0000 0.33333  0.66667  0.40280  Biso   1.000  Ir
  Ir2      1.0000 0.00000  0.00000  0.45837  Biso   1.000  Ir
  Ir3      1.0000 0.00000  0.00000  0.12502  Biso   1.000  Ir
  Ir4      1.0000 0.00000  0.00000  0.68053  Biso   1.000  Ir
  Ir5      1.0000 0.33333  0.66667  0.84720  Biso   1.000  Ir
  Ir6      1.0000 0.00000  0.00000  0.90279  Biso   1.000  Ir
  Ir7      1.0000 0.00000  0.00000  0.56941  Biso   1.000  Ir
  Ir8      1.0000 0.00000  0.00000  0.73609  Biso   1.000  Ir
  Ir9      1.0000 0.33333  0.66667  0.95829  Biso   1.000  Ir
  Ir10     1.0000 0.33333  0.66667  0.51389  Biso   1.000  Ir
  Ir11     1.0000 0.00000  0.00000  0.62502  Biso   1.000  Ir
  Ir12     1.0000 0.00000  0.00000  0.23608  Biso   1.000  Ir
  Ir13     1.0000 0.00000  0.00000  0.01389  Biso   1.000  Ir
  Ir14     1.0000 0.00000  0.00000  0.34725  Biso   1.000  Ir
  Ir15     1.0000 0.00000  0.00000  0.29169  Biso   1.000  Ir
  Ir16     1.0000 0.00000  0.00000  0.79169  Biso   1.000  Ir
  Ir17     1.0000 0.33333  0.66667  0.18054  Biso   1.000  Ir
  Ir18     1.0000 0.33333  0.66667  0.06944  Biso   1.000  Ir
  O1       1.0000 0.33333  0.66667  0.11238  Biso   1.000  O
  O2       1.0000 0.66667  0.33333  0.91543  Biso   1.000  O
  O3       1.0000 0.33333  0.66667  0.44575  Biso   1.000  O
  O4       1.0000 0.66667  0.33333  0.35989  Biso   1.000  O
  O5       1.0000 0.33333  0.66667  0.27904  Biso   1.000  O
  O6       1.0000 0.66667  0.33333  0.80434  Biso   1.000  O
  O7       1.0000 0.33333  0.66667  0.77904  Biso   1.000  O
  O8       1.0000 0.66667  0.33333  0.08208  Biso   1.000  O
  O9       1.0000 0.66667  0.33333  0.30434  Biso   1.000  O
  O10      1.0000 0.33333  0.66667  0.22344  Biso   1.000  O
  O11      1.0000 0.66667  0.33333  0.13767  Biso   1.000  O
  O12      1.0000 0.33333  0.66667  0.66789  Biso   1.000  O
  O13      1.0000 0.00000  0.00000  0.83456  Biso   1.000  O
  O14      1.0000 0.66667  0.33333  0.02653  Biso   1.000  O
  O15      1.0000 0.66667  0.33333  0.85984  Biso   1.000  O
  O16      1.0000 0.00000  0.00000  0.16791  Biso   1.000  O
  O17      1.0000 0.66667  0.33333  0.63767  Biso   1.000  O
  O18      1.0000 0.66667  0.33333  0.19318  Biso   1.000  O
  O19      1.0000 0.66667  0.33333  0.47099  Biso   1.000  O
  O20      1.0000 0.66667  0.33333  0.69318  Biso   1.000  O
  O21      1.0000 0.00000  0.00000  0.05680  Biso   1.000  O
  O22      1.0000 0.33333  0.66667  0.00124  Biso   1.000  O
  O23      1.0000 0.66667  0.33333  0.41544  Biso   1.000  O
  O24      1.0000 0.33333  0.66667  0.55676  Biso   1.000  O
  O25      1.0000 0.33333  0.66667  0.72345  Biso   1.000  O
  O26      1.0000 0.66667  0.33333  0.97094  Biso   1.000  O
  O27      1.0000 0.00000  0.00000  0.39016  Biso   1.000  O
  O28      1.0000 0.00000  0.00000  0.94564  Biso   1.000  O
  O29      1.0000 0.66667  0.33333  0.52653  Biso   1.000  O
  O30      1.0000 0.33333  0.66667  0.33461  Biso   1.000  O
  O31      1.0000 0.66667  0.33333  0.74873  Biso   1.000  O
  O32      1.0000 0.66667  0.33333  0.58206  Biso   1.000  O
  O33      1.0000 0.00000  0.00000  0.50126  Biso   1.000  O
  O34      1.0000 0.66667  0.33333  0.24873  Biso   1.000  O
  O35      1.0000 0.33333  0.66667  0.89013  Biso   1.000  O
  O36      1.0000 0.33333  0.66667  0.61238  Biso   1.000  O
