data_image0
_cell_length_a       26.1995
_cell_length_b       26.1995
_cell_length_c       26.1995
_cell_angle_alpha    90
_cell_angle_beta     90
_cell_angle_gamma    90

_symmetry_space_group_name_H-M    "P 1"
_symmetry_int_tables_number       1

loop_
  _symmetry_equiv_pos_as_xyz
  'x, y, z'

loop_
  _atom_site_label
  _atom_site_occupancy
  _atom_site_fract_x
  _atom_site_fract_y
  _atom_site_fract_z
  _atom_site_thermal_displace_type
  _atom_site_B_iso_or_equiv
  _atom_site_type_symbol
  O1       1.0000 0.05910  0.36692  0.35024  Biso   1.000  O
  O2       1.0000 0.44090  0.13309  0.35024  Biso   1.000  O
  O3       1.0000 0.44090  0.36692  0.14977  Biso   1.000  O
  O4       1.0000 0.05910  0.13309  0.14977  Biso   1.000  O
  O5       1.0000 0.14977  0.05910  0.13309  Biso   1.000  O
  O6       1.0000 0.14977  0.44090  0.36692  Biso   1.000  O
  O7       1.0000 0.35024  0.44090  0.13309  Biso   1.000  O
  O8       1.0000 0.35024  0.05910  0.36692  Biso   1.000  O
  O9       1.0000 0.36692  0.14977  0.44090  Biso   1.000  O
  O10      1.0000 0.13309  0.14977  0.05910  Biso   1.000  O
  O11      1.0000 0.36692  0.35024  0.05910  Biso   1.000  O
  O12      1.0000 0.13309  0.35024  0.44090  Biso   1.000  O
  O13      1.0000 0.36692  0.05910  0.14977  Biso   1.000  O
  O14      1.0000 0.13309  0.44090  0.14977  Biso   1.000  O
  O15      1.0000 0.86692  0.44090  0.85024  Biso   1.000  O
  O16      1.0000 0.63309  0.05910  0.85024  Biso   1.000  O
  O17      1.0000 0.55910  0.14977  0.86692  Biso   1.000  O
  O18      1.0000 0.44090  0.14977  0.13309  Biso   1.000  O
  O19      1.0000 0.94090  0.35024  0.86692  Biso   1.000  O
  O20      1.0000 0.05910  0.35024  0.13309  Biso   1.000  O
  O21      1.0000 0.14977  0.36692  0.05910  Biso   1.000  O
  O22      1.0000 0.64977  0.13309  0.94090  Biso   1.000  O
  O23      1.0000 0.85024  0.36692  0.94090  Biso   1.000  O
  O24      1.0000 0.35024  0.13309  0.05910  Biso   1.000  O
  O25      1.0000 0.44090  0.13309  0.64977  Biso   1.000  O
  O26      1.0000 0.05910  0.36692  0.64977  Biso   1.000  O
  O27      1.0000 0.05910  0.13309  0.85024  Biso   1.000  O
  O28      1.0000 0.44090  0.36692  0.85024  Biso   1.000  O
  O29      1.0000 0.35024  0.44090  0.86692  Biso   1.000  O
  O30      1.0000 0.35024  0.05910  0.63309  Biso   1.000  O
  O31      1.0000 0.14977  0.05910  0.86692  Biso   1.000  O
  O32      1.0000 0.14977  0.44090  0.63309  Biso   1.000  O
  O33      1.0000 0.13309  0.35024  0.55910  Biso   1.000  O
  O34      1.0000 0.36692  0.35024  0.94090  Biso   1.000  O
  O35      1.0000 0.13309  0.14977  0.94090  Biso   1.000  O
  O36      1.0000 0.36692  0.14977  0.55910  Biso   1.000  O
  O37      1.0000 0.13309  0.44090  0.85024  Biso   1.000  O
  O38      1.0000 0.36692  0.05910  0.85024  Biso   1.000  O
  O39      1.0000 0.63309  0.05910  0.14977  Biso   1.000  O
  O40      1.0000 0.86692  0.44090  0.14977  Biso   1.000  O
  O41      1.0000 0.94090  0.35024  0.13309  Biso   1.000  O
  O42      1.0000 0.05910  0.35024  0.86692  Biso   1.000  O
  O43      1.0000 0.55910  0.14977  0.13309  Biso   1.000  O
  O44      1.0000 0.44090  0.14977  0.86692  Biso   1.000  O
  O45      1.0000 0.35024  0.13309  0.94090  Biso   1.000  O
  O46      1.0000 0.85024  0.36692  0.05910  Biso   1.000  O
  O47      1.0000 0.64977  0.13309  0.05910  Biso   1.000  O
  O48      1.0000 0.14977  0.36692  0.94090  Biso   1.000  O
  O49      1.0000 0.00000  0.18171  0.93931  Biso   1.000  O
  O50      1.0000 0.50000  0.31829  0.93931  Biso   1.000  O
  O51      1.0000 0.00000  0.18171  0.06069  Biso   1.000  O
  O52      1.0000 0.50000  0.31829  0.06069  Biso   1.000  O
  O53      1.0000 0.56069  0.00000  0.31829  Biso   1.000  O
  O54      1.0000 0.56069  0.00000  0.68171  Biso   1.000  O
  O55      1.0000 0.43931  0.00000  0.31829  Biso   1.000  O
  O56      1.0000 0.43931  0.00000  0.68171  Biso   1.000  O
  O57      1.0000 0.18171  0.06069  0.00000  Biso   1.000  O
  O58      1.0000 0.81829  0.06069  0.00000  Biso   1.000  O
  O59      1.0000 0.68171  0.43931  0.00000  Biso   1.000  O
  O60      1.0000 0.31829  0.43931  0.00000  Biso   1.000  O
  O61      1.0000 0.68171  0.00000  0.06069  Biso   1.000  O
  O62      1.0000 0.31829  0.00000  0.06069  Biso   1.000  O
  O63      1.0000 0.68171  0.00000  0.93931  Biso   1.000  O
  O64      1.0000 0.31829  0.00000  0.93931  Biso   1.000  O
  O65      1.0000 0.50000  0.06069  0.18171  Biso   1.000  O
  O66      1.0000 0.50000  0.06069  0.81829  Biso   1.000  O
  O67      1.0000 0.00000  0.43931  0.18171  Biso   1.000  O
  O68      1.0000 0.00000  0.43931  0.81829  Biso   1.000  O
  O69      1.0000 0.56069  0.18171  0.00000  Biso   1.000  O
  O70      1.0000 0.06069  0.31829  0.00000  Biso   1.000  O
  O71      1.0000 0.43931  0.18171  0.00000  Biso   1.000  O
  O72      1.0000 0.93931  0.31829  0.00000  Biso   1.000  O
  O73      1.0000 0.25000  0.40474  0.09526  Biso   1.000  O
  O74      1.0000 0.25000  0.09526  0.09526  Biso   1.000  O
  O75      1.0000 0.75000  0.40474  0.90474  Biso   1.000  O
  O76      1.0000 0.75000  0.09526  0.90474  Biso   1.000  O
  O77      1.0000 0.40474  0.25000  0.09526  Biso   1.000  O
  O78      1.0000 0.90474  0.25000  0.90474  Biso   1.000  O
  O79      1.0000 0.09526  0.25000  0.09526  Biso   1.000  O
  O80      1.0000 0.59526  0.25000  0.90474  Biso   1.000  O
  O81      1.0000 0.90474  0.40474  0.75000  Biso   1.000  O
  O82      1.0000 0.09526  0.40474  0.25000  Biso   1.000  O
  O83      1.0000 0.40474  0.09526  0.25000  Biso   1.000  O
  O84      1.0000 0.59526  0.09526  0.75000  Biso   1.000  O
  O85      1.0000 0.25000  0.09526  0.90474  Biso   1.000  O
  O86      1.0000 0.25000  0.40474  0.90474  Biso   1.000  O
  O87      1.0000 0.75000  0.09526  0.09526  Biso   1.000  O
  O88      1.0000 0.75000  0.40474  0.09526  Biso   1.000  O
  O89      1.0000 0.09526  0.25000  0.90474  Biso   1.000  O
  O90      1.0000 0.59526  0.25000  0.09526  Biso   1.000  O
  O91      1.0000 0.40474  0.25000  0.90474  Biso   1.000  O
  O92      1.0000 0.90474  0.25000  0.09526  Biso   1.000  O
  O93      1.0000 0.59526  0.09526  0.25000  Biso   1.000  O
  O94      1.0000 0.40474  0.09526  0.75000  Biso   1.000  O
  O95      1.0000 0.09526  0.40474  0.75000  Biso   1.000  O
  O96      1.0000 0.90474  0.40474  0.25000  Biso   1.000  O
  O97      1.0000 0.05910  0.86692  0.85024  Biso   1.000  O
  O98      1.0000 0.44090  0.63309  0.85024  Biso   1.000  O
  O99      1.0000 0.44090  0.86692  0.64977  Biso   1.000  O
  O100     1.0000 0.05910  0.63309  0.64977  Biso   1.000  O
  O101     1.0000 0.14977  0.55910  0.63309  Biso   1.000  O
  O102     1.0000 0.14977  0.94090  0.86692  Biso   1.000  O
  O103     1.0000 0.35024  0.94090  0.63309  Biso   1.000  O
  O104     1.0000 0.35024  0.55910  0.86692  Biso   1.000  O
  O105     1.0000 0.36692  0.64977  0.94090  Biso   1.000  O
  O106     1.0000 0.13309  0.64977  0.55910  Biso   1.000  O
  O107     1.0000 0.36692  0.85024  0.55910  Biso   1.000  O
  O108     1.0000 0.13309  0.85024  0.94090  Biso   1.000  O
  O109     1.0000 0.36692  0.55910  0.64977  Biso   1.000  O
  O110     1.0000 0.13309  0.94090  0.64977  Biso   1.000  O
  O111     1.0000 0.86692  0.94090  0.35024  Biso   1.000  O
  O112     1.0000 0.63309  0.55910  0.35024  Biso   1.000  O
  O113     1.0000 0.55910  0.64977  0.36692  Biso   1.000  O
  O114     1.0000 0.44090  0.64977  0.63309  Biso   1.000  O
  O115     1.0000 0.94090  0.85024  0.36692  Biso   1.000  O
  O116     1.0000 0.05910  0.85024  0.63309  Biso   1.000  O
  O117     1.0000 0.14977  0.86692  0.55910  Biso   1.000  O
  O118     1.0000 0.64977  0.63309  0.44090  Biso   1.000  O
  O119     1.0000 0.85024  0.86692  0.44090  Biso   1.000  O
  O120     1.0000 0.35024  0.63309  0.55910  Biso   1.000  O
  O121     1.0000 0.44090  0.63309  0.14977  Biso   1.000  O
  O122     1.0000 0.05910  0.86692  0.14977  Biso   1.000  O
  O123     1.0000 0.05910  0.63309  0.35024  Biso   1.000  O
  O124     1.0000 0.44090  0.86692  0.35024  Biso   1.000  O
  O125     1.0000 0.35024  0.94090  0.36692  Biso   1.000  O
  O126     1.0000 0.35024  0.55910  0.13309  Biso   1.000  O
  O127     1.0000 0.14977  0.55910  0.36692  Biso   1.000  O
  O128     1.0000 0.14977  0.94090  0.13309  Biso   1.000  O
  O129     1.0000 0.13309  0.85024  0.05910  Biso   1.000  O
  O130     1.0000 0.36692  0.85024  0.44090  Biso   1.000  O
  O131     1.0000 0.13309  0.64977  0.44090  Biso   1.000  O
  O132     1.0000 0.36692  0.64977  0.05910  Biso   1.000  O
  O133     1.0000 0.13309  0.94090  0.35024  Biso   1.000  O
  O134     1.0000 0.36692  0.55910  0.35024  Biso   1.000  O
  O135     1.0000 0.63309  0.55910  0.64977  Biso   1.000  O
  O136     1.0000 0.86692  0.94090  0.64977  Biso   1.000  O
  O137     1.0000 0.94090  0.85024  0.63309  Biso   1.000  O
  O138     1.0000 0.05910  0.85024  0.36692  Biso   1.000  O
  O139     1.0000 0.55910  0.64977  0.63309  Biso   1.000  O
  O140     1.0000 0.44090  0.64977  0.36692  Biso   1.000  O
  O141     1.0000 0.35024  0.63309  0.44090  Biso   1.000  O
  O142     1.0000 0.85024  0.86692  0.55910  Biso   1.000  O
  O143     1.0000 0.64977  0.63309  0.55910  Biso   1.000  O
  O144     1.0000 0.14977  0.86692  0.44090  Biso   1.000  O
  O145     1.0000 0.00000  0.68171  0.43931  Biso   1.000  O
  O146     1.0000 0.50000  0.81829  0.43931  Biso   1.000  O
  O147     1.0000 0.00000  0.68171  0.56069  Biso   1.000  O
  O148     1.0000 0.50000  0.81829  0.56069  Biso   1.000  O
  O149     1.0000 0.56069  0.50000  0.81829  Biso   1.000  O
  O150     1.0000 0.56069  0.50000  0.18171  Biso   1.000  O
  O151     1.0000 0.43931  0.50000  0.81829  Biso   1.000  O
  O152     1.0000 0.43931  0.50000  0.18171  Biso   1.000  O
  O153     1.0000 0.18171  0.56069  0.50000  Biso   1.000  O
  O154     1.0000 0.81829  0.56069  0.50000  Biso   1.000  O
  O155     1.0000 0.68171  0.93931  0.50000  Biso   1.000  O
  O156     1.0000 0.31829  0.93931  0.50000  Biso   1.000  O
  O157     1.0000 0.68171  0.50000  0.56069  Biso   1.000  O
  O158     1.0000 0.31829  0.50000  0.56069  Biso   1.000  O
  O159     1.0000 0.68171  0.50000  0.43931  Biso   1.000  O
  O160     1.0000 0.31829  0.50000  0.43931  Biso   1.000  O
  O161     1.0000 0.50000  0.56069  0.68171  Biso   1.000  O
  O162     1.0000 0.50000  0.56069  0.31829  Biso   1.000  O
  O163     1.0000 0.00000  0.93931  0.68171  Biso   1.000  O
  O164     1.0000 0.00000  0.93931  0.31829  Biso   1.000  O
  O165     1.0000 0.56069  0.68171  0.50000  Biso   1.000  O
  O166     1.0000 0.06069  0.81829  0.50000  Biso   1.000  O
  O167     1.0000 0.43931  0.68171  0.50000  Biso   1.000  O
  O168     1.0000 0.93931  0.81829  0.50000  Biso   1.000  O
  O169     1.0000 0.25000  0.90474  0.59526  Biso   1.000  O
  O170     1.0000 0.25000  0.59526  0.59526  Biso   1.000  O
  O171     1.0000 0.75000  0.90474  0.40474  Biso   1.000  O
  O172     1.0000 0.75000  0.59526  0.40474  Biso   1.000  O
  O173     1.0000 0.40474  0.75000  0.59526  Biso   1.000  O
  O174     1.0000 0.90474  0.75000  0.40474  Biso   1.000  O
  O175     1.0000 0.09526  0.75000  0.59526  Biso   1.000  O
  O176     1.0000 0.59526  0.75000  0.40474  Biso   1.000  O
  O177     1.0000 0.90474  0.90474  0.25000  Biso   1.000  O
  O178     1.0000 0.09526  0.90474  0.75000  Biso   1.000  O
  O179     1.0000 0.40474  0.59526  0.75000  Biso   1.000  O
  O180     1.0000 0.59526  0.59526  0.25000  Biso   1.000  O
  O181     1.0000 0.25000  0.59526  0.40474  Biso   1.000  O
  O182     1.0000 0.25000  0.90474  0.40474  Biso   1.000  O
  O183     1.0000 0.75000  0.59526  0.59526  Biso   1.000  O
  O184     1.0000 0.75000  0.90474  0.59526  Biso   1.000  O
  O185     1.0000 0.09526  0.75000  0.40474  Biso   1.000  O
  O186     1.0000 0.59526  0.75000  0.59526  Biso   1.000  O
  O187     1.0000 0.40474  0.75000  0.40474  Biso   1.000  O
  O188     1.0000 0.90474  0.75000  0.59526  Biso   1.000  O
  O189     1.0000 0.59526  0.59526  0.75000  Biso   1.000  O
  O190     1.0000 0.40474  0.59526  0.25000  Biso   1.000  O
  O191     1.0000 0.09526  0.90474  0.25000  Biso   1.000  O
  O192     1.0000 0.90474  0.90474  0.75000  Biso   1.000  O
  O193     1.0000 0.55910  0.36692  0.85024  Biso   1.000  O
  O194     1.0000 0.94090  0.13309  0.85024  Biso   1.000  O
  O195     1.0000 0.94090  0.36692  0.64977  Biso   1.000  O
  O196     1.0000 0.55910  0.13309  0.64977  Biso   1.000  O
  O197     1.0000 0.64977  0.05910  0.63309  Biso   1.000  O
  O198     1.0000 0.64977  0.44090  0.86692  Biso   1.000  O
  O199     1.0000 0.85024  0.44090  0.63309  Biso   1.000  O
  O200     1.0000 0.85024  0.05910  0.86692  Biso   1.000  O
  O201     1.0000 0.86692  0.14977  0.94090  Biso   1.000  O
  O202     1.0000 0.63309  0.14977  0.55910  Biso   1.000  O
  O203     1.0000 0.86692  0.35024  0.55910  Biso   1.000  O
  O204     1.0000 0.63309  0.35024  0.94090  Biso   1.000  O
  O205     1.0000 0.86692  0.05910  0.64977  Biso   1.000  O
  O206     1.0000 0.63309  0.44090  0.64977  Biso   1.000  O
  O207     1.0000 0.36692  0.44090  0.35024  Biso   1.000  O
  O208     1.0000 0.13309  0.05910  0.35024  Biso   1.000  O
  O209     1.0000 0.05910  0.14977  0.36692  Biso   1.000  O
  O210     1.0000 0.94090  0.14977  0.63309  Biso   1.000  O
  O211     1.0000 0.44090  0.35024  0.36692  Biso   1.000  O
  O212     1.0000 0.55910  0.35024  0.63309  Biso   1.000  O
  O213     1.0000 0.64977  0.36692  0.55910  Biso   1.000  O
  O214     1.0000 0.14977  0.13309  0.44090  Biso   1.000  O
  O215     1.0000 0.35024  0.36692  0.44090  Biso   1.000  O
  O216     1.0000 0.85024  0.13309  0.55910  Biso   1.000  O
  O217     1.0000 0.94090  0.13309  0.14977  Biso   1.000  O
  O218     1.0000 0.55910  0.36692  0.14977  Biso   1.000  O
  O219     1.0000 0.55910  0.13309  0.35024  Biso   1.000  O
  O220     1.0000 0.94090  0.36692  0.35024  Biso   1.000  O
  O221     1.0000 0.85024  0.44090  0.36692  Biso   1.000  O
  O222     1.0000 0.85024  0.05910  0.13309  Biso   1.000  O
  O223     1.0000 0.64977  0.05910  0.36692  Biso   1.000  O
  O224     1.0000 0.64977  0.44090  0.13309  Biso   1.000  O
  O225     1.0000 0.63309  0.35024  0.05910  Biso   1.000  O
  O226     1.0000 0.86692  0.35024  0.44090  Biso   1.000  O
  O227     1.0000 0.63309  0.14977  0.44090  Biso   1.000  O
  O228     1.0000 0.86692  0.14977  0.05910  Biso   1.000  O
  O229     1.0000 0.63309  0.44090  0.35024  Biso   1.000  O
  O230     1.0000 0.86692  0.05910  0.35024  Biso   1.000  O
  O231     1.0000 0.13309  0.05910  0.64977  Biso   1.000  O
  O232     1.0000 0.36692  0.44090  0.64977  Biso   1.000  O
  O233     1.0000 0.44090  0.35024  0.63309  Biso   1.000  O
  O234     1.0000 0.55910  0.35024  0.36692  Biso   1.000  O
  O235     1.0000 0.05910  0.14977  0.63309  Biso   1.000  O
  O236     1.0000 0.94090  0.14977  0.36692  Biso   1.000  O
  O237     1.0000 0.85024  0.13309  0.44090  Biso   1.000  O
  O238     1.0000 0.35024  0.36692  0.55910  Biso   1.000  O
  O239     1.0000 0.14977  0.13309  0.55910  Biso   1.000  O
  O240     1.0000 0.64977  0.36692  0.44090  Biso   1.000  O
  O241     1.0000 0.50000  0.18171  0.43931  Biso   1.000  O
  O242     1.0000 0.00000  0.31829  0.43931  Biso   1.000  O
  O243     1.0000 0.50000  0.18171  0.56069  Biso   1.000  O
  O244     1.0000 0.00000  0.31829  0.56069  Biso   1.000  O
  O245     1.0000 0.06069  0.00000  0.81829  Biso   1.000  O
  O246     1.0000 0.06069  0.00000  0.18171  Biso   1.000  O
  O247     1.0000 0.93931  0.00000  0.81829  Biso   1.000  O
  O248     1.0000 0.93931  0.00000  0.18171  Biso   1.000  O
  O249     1.0000 0.68171  0.06069  0.50000  Biso   1.000  O
  O250     1.0000 0.31829  0.06069  0.50000  Biso   1.000  O
  O251     1.0000 0.18171  0.43931  0.50000  Biso   1.000  O
  O252     1.0000 0.81829  0.43931  0.50000  Biso   1.000  O
  O253     1.0000 0.18171  0.00000  0.56069  Biso   1.000  O
  O254     1.0000 0.81829  0.00000  0.56069  Biso   1.000  O
  O255     1.0000 0.18171  0.00000  0.43931  Biso   1.000  O
  O256     1.0000 0.81829  0.00000  0.43931  Biso   1.000  O
  O257     1.0000 0.00000  0.06069  0.68171  Biso   1.000  O
  O258     1.0000 0.00000  0.06069  0.31829  Biso   1.000  O
  O259     1.0000 0.50000  0.43931  0.68171  Biso   1.000  O
  O260     1.0000 0.50000  0.43931  0.31829  Biso   1.000  O
  O261     1.0000 0.06069  0.18171  0.50000  Biso   1.000  O
  O262     1.0000 0.56069  0.31829  0.50000  Biso   1.000  O
  O263     1.0000 0.93931  0.18171  0.50000  Biso   1.000  O
  O264     1.0000 0.43931  0.31829  0.50000  Biso   1.000  O
  O265     1.0000 0.75000  0.40474  0.59526  Biso   1.000  O
  O266     1.0000 0.75000  0.09526  0.59526  Biso   1.000  O
  O267     1.0000 0.25000  0.40474  0.40474  Biso   1.000  O
  O268     1.0000 0.25000  0.09526  0.40474  Biso   1.000  O
  O269     1.0000 0.90474  0.25000  0.59526  Biso   1.000  O
  O270     1.0000 0.40474  0.25000  0.40474  Biso   1.000  O
  O271     1.0000 0.59526  0.25000  0.59526  Biso   1.000  O
  O272     1.0000 0.09526  0.25000  0.40474  Biso   1.000  O
  O273     1.0000 0.40474  0.40474  0.25000  Biso   1.000  O
  O274     1.0000 0.59526  0.40474  0.75000  Biso   1.000  O
  O275     1.0000 0.90474  0.09526  0.75000  Biso   1.000  O
  O276     1.0000 0.09526  0.09526  0.25000  Biso   1.000  O
  O277     1.0000 0.75000  0.09526  0.40474  Biso   1.000  O
  O278     1.0000 0.75000  0.40474  0.40474  Biso   1.000  O
  O279     1.0000 0.25000  0.09526  0.59526  Biso   1.000  O
  O280     1.0000 0.25000  0.40474  0.59526  Biso   1.000  O
  O281     1.0000 0.59526  0.25000  0.40474  Biso   1.000  O
  O282     1.0000 0.09526  0.25000  0.59526  Biso   1.000  O
  O283     1.0000 0.90474  0.25000  0.40474  Biso   1.000  O
  O284     1.0000 0.40474  0.25000  0.59526  Biso   1.000  O
  O285     1.0000 0.09526  0.09526  0.75000  Biso   1.000  O
  O286     1.0000 0.90474  0.09526  0.25000  Biso   1.000  O
  O287     1.0000 0.59526  0.40474  0.25000  Biso   1.000  O
  O288     1.0000 0.40474  0.40474  0.75000  Biso   1.000  O
  O289     1.0000 0.55910  0.86692  0.35024  Biso   1.000  O
  O290     1.0000 0.94090  0.63309  0.35024  Biso   1.000  O
  O291     1.0000 0.94090  0.86692  0.14977  Biso   1.000  O
  O292     1.0000 0.55910  0.63309  0.14977  Biso   1.000  O
  O293     1.0000 0.64977  0.55910  0.13309  Biso   1.000  O
  O294     1.0000 0.64977  0.94090  0.36692  Biso   1.000  O
  O295     1.0000 0.85024  0.94090  0.13309  Biso   1.000  O
  O296     1.0000 0.85024  0.55910  0.36692  Biso   1.000  O
  O297     1.0000 0.86692  0.64977  0.44090  Biso   1.000  O
  O298     1.0000 0.63309  0.64977  0.05910  Biso   1.000  O
  O299     1.0000 0.86692  0.85024  0.05910  Biso   1.000  O
  O300     1.0000 0.63309  0.85024  0.44090  Biso   1.000  O
  O301     1.0000 0.86692  0.55910  0.14977  Biso   1.000  O
  O302     1.0000 0.63309  0.94090  0.14977  Biso   1.000  O
  O303     1.0000 0.36692  0.94090  0.85024  Biso   1.000  O
  O304     1.0000 0.13309  0.55910  0.85024  Biso   1.000  O
  O305     1.0000 0.05910  0.64977  0.86692  Biso   1.000  O
  O306     1.0000 0.94090  0.64977  0.13309  Biso   1.000  O
  O307     1.0000 0.44090  0.85024  0.86692  Biso   1.000  O
  O308     1.0000 0.55910  0.85024  0.13309  Biso   1.000  O
  O309     1.0000 0.64977  0.86692  0.05910  Biso   1.000  O
  O310     1.0000 0.14977  0.63309  0.94090  Biso   1.000  O
  O311     1.0000 0.35024  0.86692  0.94090  Biso   1.000  O
  O312     1.0000 0.85024  0.63309  0.05910  Biso   1.000  O
  O313     1.0000 0.94090  0.63309  0.64977  Biso   1.000  O
  O314     1.0000 0.55910  0.86692  0.64977  Biso   1.000  O
  O315     1.0000 0.55910  0.63309  0.85024  Biso   1.000  O
  O316     1.0000 0.94090  0.86692  0.85024  Biso   1.000  O
  O317     1.0000 0.85024  0.94090  0.86692  Biso   1.000  O
  O318     1.0000 0.85024  0.55910  0.63309  Biso   1.000  O
  O319     1.0000 0.64977  0.55910  0.86692  Biso   1.000  O
  O320     1.0000 0.64977  0.94090  0.63309  Biso   1.000  O
  O321     1.0000 0.63309  0.85024  0.55910  Biso   1.000  O
  O322     1.0000 0.86692  0.85024  0.94090  Biso   1.000  O
  O323     1.0000 0.63309  0.64977  0.94090  Biso   1.000  O
  O324     1.0000 0.86692  0.64977  0.55910  Biso   1.000  O
  O325     1.0000 0.63309  0.94090  0.85024  Biso   1.000  O
  O326     1.0000 0.86692  0.55910  0.85024  Biso   1.000  O
  O327     1.0000 0.13309  0.55910  0.14977  Biso   1.000  O
  O328     1.0000 0.36692  0.94090  0.14977  Biso   1.000  O
  O329     1.0000 0.44090  0.85024  0.13309  Biso   1.000  O
  O330     1.0000 0.55910  0.85024  0.86692  Biso   1.000  O
  O331     1.0000 0.05910  0.64977  0.13309  Biso   1.000  O
  O332     1.0000 0.94090  0.64977  0.86692  Biso   1.000  O
  O333     1.0000 0.85024  0.63309  0.94090  Biso   1.000  O
  O334     1.0000 0.35024  0.86692  0.05910  Biso   1.000  O
  O335     1.0000 0.14977  0.63309  0.05910  Biso   1.000  O
  O336     1.0000 0.64977  0.86692  0.94090  Biso   1.000  O
  O337     1.0000 0.50000  0.68171  0.93931  Biso   1.000  O
  O338     1.0000 0.00000  0.81829  0.93931  Biso   1.000  O
  O339     1.0000 0.50000  0.68171  0.06069  Biso   1.000  O
  O340     1.0000 0.00000  0.81829  0.06069  Biso   1.000  O
  O341     1.0000 0.06069  0.50000  0.31829  Biso   1.000  O
  O342     1.0000 0.06069  0.50000  0.68171  Biso   1.000  O
  O343     1.0000 0.93931  0.50000  0.31829  Biso   1.000  O
  O344     1.0000 0.93931  0.50000  0.68171  Biso   1.000  O
  O345     1.0000 0.68171  0.56069  0.00000  Biso   1.000  O
  O346     1.0000 0.31829  0.56069  0.00000  Biso   1.000  O
  O347     1.0000 0.18171  0.93931  0.00000  Biso   1.000  O
  O348     1.0000 0.81829  0.93931  0.00000  Biso   1.000  O
  O349     1.0000 0.18171  0.50000  0.06069  Biso   1.000  O
  O350     1.0000 0.81829  0.50000  0.06069  Biso   1.000  O
  O351     1.0000 0.18171  0.50000  0.93931  Biso   1.000  O
  O352     1.0000 0.81829  0.50000  0.93931  Biso   1.000  O
  O353     1.0000 0.00000  0.56069  0.18171  Biso   1.000  O
  O354     1.0000 0.00000  0.56069  0.81829  Biso   1.000  O
  O355     1.0000 0.50000  0.93931  0.18171  Biso   1.000  O
  O356     1.0000 0.50000  0.93931  0.81829  Biso   1.000  O
  O357     1.0000 0.06069  0.68171  0.00000  Biso   1.000  O
  O358     1.0000 0.56069  0.81829  0.00000  Biso   1.000  O
  O359     1.0000 0.93931  0.68171  0.00000  Biso   1.000  O
  O360     1.0000 0.43931  0.81829  0.00000  Biso   1.000  O
  O361     1.0000 0.75000  0.90474  0.09526  Biso   1.000  O
  O362     1.0000 0.75000  0.59526  0.09526  Biso   1.000  O
  O363     1.0000 0.25000  0.90474  0.90474  Biso   1.000  O
  O364     1.0000 0.25000  0.59526  0.90474  Biso   1.000  O
  O365     1.0000 0.90474  0.75000  0.09526  Biso   1.000  O
  O366     1.0000 0.40474  0.75000  0.90474  Biso   1.000  O
  O367     1.0000 0.59526  0.75000  0.09526  Biso   1.000  O
  O368     1.0000 0.09526  0.75000  0.90474  Biso   1.000  O
  O369     1.0000 0.40474  0.90474  0.75000  Biso   1.000  O
  O370     1.0000 0.59526  0.90474  0.25000  Biso   1.000  O
  O371     1.0000 0.90474  0.59526  0.25000  Biso   1.000  O
  O372     1.0000 0.09526  0.59526  0.75000  Biso   1.000  O
  O373     1.0000 0.75000  0.59526  0.90474  Biso   1.000  O
  O374     1.0000 0.75000  0.90474  0.90474  Biso   1.000  O
  O375     1.0000 0.25000  0.59526  0.09526  Biso   1.000  O
  O376     1.0000 0.25000  0.90474  0.09526  Biso   1.000  O
  O377     1.0000 0.59526  0.75000  0.90474  Biso   1.000  O
  O378     1.0000 0.09526  0.75000  0.09526  Biso   1.000  O
  O379     1.0000 0.90474  0.75000  0.90474  Biso   1.000  O
  O380     1.0000 0.40474  0.75000  0.09526  Biso   1.000  O
  O381     1.0000 0.09526  0.59526  0.25000  Biso   1.000  O
  O382     1.0000 0.90474  0.59526  0.75000  Biso   1.000  O
  O383     1.0000 0.59526  0.90474  0.75000  Biso   1.000  O
  O384     1.0000 0.40474  0.90474  0.25000  Biso   1.000  O
  Ir1      1.0000 0.09081  0.32121  0.07067  Biso   1.000  Ir
  Ir2      1.0000 0.40919  0.17879  0.07067  Biso   1.000  Ir
  Ir3      1.0000 0.90919  0.32121  0.92933  Biso   1.000  Ir
  Ir4      1.0000 0.59081  0.17879  0.92933  Biso   1.000  Ir
  Ir5      1.0000 0.42933  0.09081  0.17879  Biso   1.000  Ir
  Ir6      1.0000 0.92933  0.40919  0.82121  Biso   1.000  Ir
  Ir7      1.0000 0.07067  0.40919  0.17879  Biso   1.000  Ir
  Ir8      1.0000 0.57067  0.09081  0.82121  Biso   1.000  Ir
  Ir9      1.0000 0.82121  0.42933  0.90919  Biso   1.000  Ir
  Ir10     1.0000 0.17879  0.42933  0.09081  Biso   1.000  Ir
  Ir11     1.0000 0.32121  0.07067  0.09081  Biso   1.000  Ir
  Ir12     1.0000 0.67879  0.07067  0.90919  Biso   1.000  Ir
  Ir13     1.0000 0.82121  0.09081  0.92933  Biso   1.000  Ir
  Ir14     1.0000 0.67879  0.40919  0.92933  Biso   1.000  Ir
  Ir15     1.0000 0.32121  0.40919  0.07067  Biso   1.000  Ir
  Ir16     1.0000 0.17879  0.09081  0.07067  Biso   1.000  Ir
  Ir17     1.0000 0.09081  0.42933  0.32121  Biso   1.000  Ir
  Ir18     1.0000 0.90919  0.42933  0.67879  Biso   1.000  Ir
  Ir19     1.0000 0.40919  0.07067  0.32121  Biso   1.000  Ir
  Ir20     1.0000 0.59081  0.07067  0.67879  Biso   1.000  Ir
  Ir21     1.0000 0.42933  0.32121  0.09081  Biso   1.000  Ir
  Ir22     1.0000 0.92933  0.17879  0.90919  Biso   1.000  Ir
  Ir23     1.0000 0.57067  0.32121  0.90919  Biso   1.000  Ir
  Ir24     1.0000 0.07067  0.17879  0.09081  Biso   1.000  Ir
  Ir25     1.0000 0.40919  0.17879  0.92933  Biso   1.000  Ir
  Ir26     1.0000 0.09081  0.32121  0.92933  Biso   1.000  Ir
  Ir27     1.0000 0.59081  0.17879  0.07067  Biso   1.000  Ir
  Ir28     1.0000 0.90919  0.32121  0.07067  Biso   1.000  Ir
  Ir29     1.0000 0.07067  0.40919  0.82121  Biso   1.000  Ir
  Ir30     1.0000 0.57067  0.09081  0.17879  Biso   1.000  Ir
  Ir31     1.0000 0.42933  0.09081  0.82121  Biso   1.000  Ir
  Ir32     1.0000 0.92933  0.40919  0.17879  Biso   1.000  Ir
  Ir33     1.0000 0.67879  0.07067  0.09081  Biso   1.000  Ir
  Ir34     1.0000 0.32121  0.07067  0.90919  Biso   1.000  Ir
  Ir35     1.0000 0.17879  0.42933  0.90919  Biso   1.000  Ir
  Ir36     1.0000 0.82121  0.42933  0.09081  Biso   1.000  Ir
  Ir37     1.0000 0.67879  0.40919  0.07067  Biso   1.000  Ir
  Ir38     1.0000 0.82121  0.09081  0.07067  Biso   1.000  Ir
  Ir39     1.0000 0.17879  0.09081  0.92933  Biso   1.000  Ir
  Ir40     1.0000 0.32121  0.40919  0.92933  Biso   1.000  Ir
  Ir41     1.0000 0.40919  0.07067  0.67879  Biso   1.000  Ir
  Ir42     1.0000 0.59081  0.07067  0.32121  Biso   1.000  Ir
  Ir43     1.0000 0.09081  0.42933  0.67879  Biso   1.000  Ir
  Ir44     1.0000 0.90919  0.42933  0.32121  Biso   1.000  Ir
  Ir45     1.0000 0.07067  0.17879  0.90919  Biso   1.000  Ir
  Ir46     1.0000 0.57067  0.32121  0.09081  Biso   1.000  Ir
  Ir47     1.0000 0.92933  0.17879  0.09081  Biso   1.000  Ir
  Ir48     1.0000 0.42933  0.32121  0.90919  Biso   1.000  Ir
  Ir49     1.0000 0.09081  0.82121  0.57067  Biso   1.000  Ir
  Ir50     1.0000 0.40919  0.67879  0.57067  Biso   1.000  Ir
  Ir51     1.0000 0.90919  0.82121  0.42933  Biso   1.000  Ir
  Ir52     1.0000 0.59081  0.67879  0.42933  Biso   1.000  Ir
  Ir53     1.0000 0.42933  0.59081  0.67879  Biso   1.000  Ir
  Ir54     1.0000 0.92933  0.90919  0.32121  Biso   1.000  Ir
  Ir55     1.0000 0.07067  0.90919  0.67879  Biso   1.000  Ir
  Ir56     1.0000 0.57067  0.59081  0.32121  Biso   1.000  Ir
  Ir57     1.0000 0.82121  0.92933  0.40919  Biso   1.000  Ir
  Ir58     1.0000 0.17879  0.92933  0.59081  Biso   1.000  Ir
  Ir59     1.0000 0.32121  0.57067  0.59081  Biso   1.000  Ir
  Ir60     1.0000 0.67879  0.57067  0.40919  Biso   1.000  Ir
  Ir61     1.0000 0.82121  0.59081  0.42933  Biso   1.000  Ir
  Ir62     1.0000 0.67879  0.90919  0.42933  Biso   1.000  Ir
  Ir63     1.0000 0.32121  0.90919  0.57067  Biso   1.000  Ir
  Ir64     1.0000 0.17879  0.59081  0.57067  Biso   1.000  Ir
  Ir65     1.0000 0.09081  0.92933  0.82121  Biso   1.000  Ir
  Ir66     1.0000 0.90919  0.92933  0.17879  Biso   1.000  Ir
  Ir67     1.0000 0.40919  0.57067  0.82121  Biso   1.000  Ir
  Ir68     1.0000 0.59081  0.57067  0.17879  Biso   1.000  Ir
  Ir69     1.0000 0.42933  0.82121  0.59081  Biso   1.000  Ir
  Ir70     1.0000 0.92933  0.67879  0.40919  Biso   1.000  Ir
  Ir71     1.0000 0.57067  0.82121  0.40919  Biso   1.000  Ir
  Ir72     1.0000 0.07067  0.67879  0.59081  Biso   1.000  Ir
  Ir73     1.0000 0.40919  0.67879  0.42933  Biso   1.000  Ir
  Ir74     1.0000 0.09081  0.82121  0.42933  Biso   1.000  Ir
  Ir75     1.0000 0.59081  0.67879  0.57067  Biso   1.000  Ir
  Ir76     1.0000 0.90919  0.82121  0.57067  Biso   1.000  Ir
  Ir77     1.0000 0.07067  0.90919  0.32121  Biso   1.000  Ir
  Ir78     1.0000 0.57067  0.59081  0.67879  Biso   1.000  Ir
  Ir79     1.0000 0.42933  0.59081  0.32121  Biso   1.000  Ir
  Ir80     1.0000 0.92933  0.90919  0.67879  Biso   1.000  Ir
  Ir81     1.0000 0.67879  0.57067  0.59081  Biso   1.000  Ir
  Ir82     1.0000 0.32121  0.57067  0.40919  Biso   1.000  Ir
  Ir83     1.0000 0.17879  0.92933  0.40919  Biso   1.000  Ir
  Ir84     1.0000 0.82121  0.92933  0.59081  Biso   1.000  Ir
  Ir85     1.0000 0.67879  0.90919  0.57067  Biso   1.000  Ir
  Ir86     1.0000 0.82121  0.59081  0.57067  Biso   1.000  Ir
  Ir87     1.0000 0.17879  0.59081  0.42933  Biso   1.000  Ir
  Ir88     1.0000 0.32121  0.90919  0.42933  Biso   1.000  Ir
  Ir89     1.0000 0.40919  0.57067  0.17879  Biso   1.000  Ir
  Ir90     1.0000 0.59081  0.57067  0.82121  Biso   1.000  Ir
  Ir91     1.0000 0.09081  0.92933  0.17879  Biso   1.000  Ir
  Ir92     1.0000 0.90919  0.92933  0.82121  Biso   1.000  Ir
  Ir93     1.0000 0.07067  0.67879  0.40919  Biso   1.000  Ir
  Ir94     1.0000 0.57067  0.82121  0.59081  Biso   1.000  Ir
  Ir95     1.0000 0.92933  0.67879  0.59081  Biso   1.000  Ir
  Ir96     1.0000 0.42933  0.82121  0.40919  Biso   1.000  Ir
  Ir97     1.0000 0.59081  0.32121  0.57067  Biso   1.000  Ir
  Ir98     1.0000 0.90919  0.17879  0.57067  Biso   1.000  Ir
  Ir99     1.0000 0.40919  0.32121  0.42933  Biso   1.000  Ir
  Ir100    1.0000 0.09081  0.17879  0.42933  Biso   1.000  Ir
  Ir101    1.0000 0.92933  0.09081  0.67879  Biso   1.000  Ir
  Ir102    1.0000 0.42933  0.40919  0.32121  Biso   1.000  Ir
  Ir103    1.0000 0.57067  0.40919  0.67879  Biso   1.000  Ir
  Ir104    1.0000 0.07067  0.09081  0.32121  Biso   1.000  Ir
  Ir105    1.0000 0.32121  0.42933  0.40919  Biso   1.000  Ir
  Ir106    1.0000 0.67879  0.42933  0.59081  Biso   1.000  Ir
  Ir107    1.0000 0.82121  0.07067  0.59081  Biso   1.000  Ir
  Ir108    1.0000 0.17879  0.07067  0.40919  Biso   1.000  Ir
  Ir109    1.0000 0.32121  0.09081  0.42933  Biso   1.000  Ir
  Ir110    1.0000 0.17879  0.40919  0.42933  Biso   1.000  Ir
  Ir111    1.0000 0.82121  0.40919  0.57067  Biso   1.000  Ir
  Ir112    1.0000 0.67879  0.09081  0.57067  Biso   1.000  Ir
  Ir113    1.0000 0.59081  0.42933  0.82121  Biso   1.000  Ir
  Ir114    1.0000 0.40919  0.42933  0.17879  Biso   1.000  Ir
  Ir115    1.0000 0.90919  0.07067  0.82121  Biso   1.000  Ir
  Ir116    1.0000 0.09081  0.07067  0.17879  Biso   1.000  Ir
  Ir117    1.0000 0.92933  0.32121  0.59081  Biso   1.000  Ir
  Ir118    1.0000 0.42933  0.17879  0.40919  Biso   1.000  Ir
  Ir119    1.0000 0.07067  0.32121  0.40919  Biso   1.000  Ir
  Ir120    1.0000 0.57067  0.17879  0.59081  Biso   1.000  Ir
  Ir121    1.0000 0.90919  0.17879  0.42933  Biso   1.000  Ir
  Ir122    1.0000 0.59081  0.32121  0.42933  Biso   1.000  Ir
  Ir123    1.0000 0.09081  0.17879  0.57067  Biso   1.000  Ir
  Ir124    1.0000 0.40919  0.32121  0.57067  Biso   1.000  Ir
  Ir125    1.0000 0.57067  0.40919  0.32121  Biso   1.000  Ir
  Ir126    1.0000 0.07067  0.09081  0.67879  Biso   1.000  Ir
  Ir127    1.0000 0.92933  0.09081  0.32121  Biso   1.000  Ir
  Ir128    1.0000 0.42933  0.40919  0.67879  Biso   1.000  Ir
  Ir129    1.0000 0.17879  0.07067  0.59081  Biso   1.000  Ir
  Ir130    1.0000 0.82121  0.07067  0.40919  Biso   1.000  Ir
  Ir131    1.0000 0.67879  0.42933  0.40919  Biso   1.000  Ir
  Ir132    1.0000 0.32121  0.42933  0.59081  Biso   1.000  Ir
  Ir133    1.0000 0.17879  0.40919  0.57067  Biso   1.000  Ir
  Ir134    1.0000 0.32121  0.09081  0.57067  Biso   1.000  Ir
  Ir135    1.0000 0.67879  0.09081  0.42933  Biso   1.000  Ir
  Ir136    1.0000 0.82121  0.40919  0.42933  Biso   1.000  Ir
  Ir137    1.0000 0.90919  0.07067  0.17879  Biso   1.000  Ir
  Ir138    1.0000 0.09081  0.07067  0.82121  Biso   1.000  Ir
  Ir139    1.0000 0.59081  0.42933  0.17879  Biso   1.000  Ir
  Ir140    1.0000 0.40919  0.42933  0.82121  Biso   1.000  Ir
  Ir141    1.0000 0.57067  0.17879  0.40919  Biso   1.000  Ir
  Ir142    1.0000 0.07067  0.32121  0.59081  Biso   1.000  Ir
  Ir143    1.0000 0.42933  0.17879  0.59081  Biso   1.000  Ir
  Ir144    1.0000 0.92933  0.32121  0.40919  Biso   1.000  Ir
  Ir145    1.0000 0.59081  0.82121  0.07067  Biso   1.000  Ir
  Ir146    1.0000 0.90919  0.67879  0.07067  Biso   1.000  Ir
  Ir147    1.0000 0.40919  0.82121  0.92933  Biso   1.000  Ir
  Ir148    1.0000 0.09081  0.67879  0.92933  Biso   1.000  Ir
  Ir149    1.0000 0.92933  0.59081  0.17879  Biso   1.000  Ir
  Ir150    1.0000 0.42933  0.90919  0.82121  Biso   1.000  Ir
  Ir151    1.0000 0.57067  0.90919  0.17879  Biso   1.000  Ir
  Ir152    1.0000 0.07067  0.59081  0.82121  Biso   1.000  Ir
  Ir153    1.0000 0.32121  0.92933  0.90919  Biso   1.000  Ir
  Ir154    1.0000 0.67879  0.92933  0.09081  Biso   1.000  Ir
  Ir155    1.0000 0.82121  0.57067  0.09081  Biso   1.000  Ir
  Ir156    1.0000 0.17879  0.57067  0.90919  Biso   1.000  Ir
  Ir157    1.0000 0.32121  0.59081  0.92933  Biso   1.000  Ir
  Ir158    1.0000 0.17879  0.90919  0.92933  Biso   1.000  Ir
  Ir159    1.0000 0.82121  0.90919  0.07067  Biso   1.000  Ir
  Ir160    1.0000 0.67879  0.59081  0.07067  Biso   1.000  Ir
  Ir161    1.0000 0.59081  0.92933  0.32121  Biso   1.000  Ir
  Ir162    1.0000 0.40919  0.92933  0.67879  Biso   1.000  Ir
  Ir163    1.0000 0.90919  0.57067  0.32121  Biso   1.000  Ir
  Ir164    1.0000 0.09081  0.57067  0.67879  Biso   1.000  Ir
  Ir165    1.0000 0.92933  0.82121  0.09081  Biso   1.000  Ir
  Ir166    1.0000 0.42933  0.67879  0.90919  Biso   1.000  Ir
  Ir167    1.0000 0.07067  0.82121  0.90919  Biso   1.000  Ir
  Ir168    1.0000 0.57067  0.67879  0.09081  Biso   1.000  Ir
  Ir169    1.0000 0.90919  0.67879  0.92933  Biso   1.000  Ir
  Ir170    1.0000 0.59081  0.82121  0.92933  Biso   1.000  Ir
  Ir171    1.0000 0.09081  0.67879  0.07067  Biso   1.000  Ir
  Ir172    1.0000 0.40919  0.82121  0.07067  Biso   1.000  Ir
  Ir173    1.0000 0.57067  0.90919  0.82121  Biso   1.000  Ir
  Ir174    1.0000 0.07067  0.59081  0.17879  Biso   1.000  Ir
  Ir175    1.0000 0.92933  0.59081  0.82121  Biso   1.000  Ir
  Ir176    1.0000 0.42933  0.90919  0.17879  Biso   1.000  Ir
  Ir177    1.0000 0.17879  0.57067  0.09081  Biso   1.000  Ir
  Ir178    1.0000 0.82121  0.57067  0.90919  Biso   1.000  Ir
  Ir179    1.0000 0.67879  0.92933  0.90919  Biso   1.000  Ir
  Ir180    1.0000 0.32121  0.92933  0.09081  Biso   1.000  Ir
  Ir181    1.0000 0.17879  0.90919  0.07067  Biso   1.000  Ir
  Ir182    1.0000 0.32121  0.59081  0.07067  Biso   1.000  Ir
  Ir183    1.0000 0.67879  0.59081  0.92933  Biso   1.000  Ir
  Ir184    1.0000 0.82121  0.90919  0.92933  Biso   1.000  Ir
  Ir185    1.0000 0.90919  0.57067  0.67879  Biso   1.000  Ir
  Ir186    1.0000 0.09081  0.57067  0.32121  Biso   1.000  Ir
  Ir187    1.0000 0.59081  0.92933  0.67879  Biso   1.000  Ir
  Ir188    1.0000 0.40919  0.92933  0.32121  Biso   1.000  Ir
  Ir189    1.0000 0.57067  0.67879  0.90919  Biso   1.000  Ir
  Ir190    1.0000 0.07067  0.82121  0.09081  Biso   1.000  Ir
  Ir191    1.0000 0.42933  0.67879  0.09081  Biso   1.000  Ir
  Ir192    1.0000 0.92933  0.82121  0.90919  Biso   1.000  Ir
