data_image0
_cell_length_a       15.8881
_cell_length_b       15.8881
_cell_length_c       6.40389
_cell_angle_alpha    90
_cell_angle_beta     90
_cell_angle_gamma    90

_symmetry_space_group_name_H-M    "P 1"
_symmetry_int_tables_number       1

loop_
  _symmetry_equiv_pos_as_xyz
  'x, y, z'

loop_
  _atom_site_label
  _atom_site_occupancy
  _atom_site_fract_x
  _atom_site_fract_y
  _atom_site_fract_z
  _atom_site_thermal_displace_type
  _atom_site_B_iso_or_equiv
  _atom_site_type_symbol
  O1       1.0000 0.85730  0.64270  0.75000  Biso   1.000  O
  O2       1.0000 0.14270  0.35730  0.75000  Biso   1.000  O
  O3       1.0000 0.14270  0.64270  0.25000  Biso   1.000  O
  O4       1.0000 0.85730  0.35730  0.25000  Biso   1.000  O
  O5       1.0000 0.14270  0.35730  0.25000  Biso   1.000  O
  O6       1.0000 0.85730  0.64270  0.25000  Biso   1.000  O
  O7       1.0000 0.85730  0.35730  0.75000  Biso   1.000  O
  O8       1.0000 0.14270  0.64270  0.75000  Biso   1.000  O
  O9       1.0000 0.75729  0.50000  0.50000  Biso   1.000  O
  O10      1.0000 0.24272  0.50000  0.50000  Biso   1.000  O
  O11      1.0000 0.00000  0.74272  0.00000  Biso   1.000  O
  O12      1.0000 0.00000  0.25729  0.00000  Biso   1.000  O
  O13      1.0000 0.81312  0.18688  0.00000  Biso   1.000  O
  O14      1.0000 0.68688  0.31312  0.50000  Biso   1.000  O
  O15      1.0000 0.18688  0.18688  0.00000  Biso   1.000  O
  O16      1.0000 0.31312  0.31312  0.50000  Biso   1.000  O
  O17      1.0000 0.35730  0.14270  0.25000  Biso   1.000  O
  O18      1.0000 0.64270  0.85730  0.25000  Biso   1.000  O
  O19      1.0000 0.64270  0.14270  0.75000  Biso   1.000  O
  O20      1.0000 0.35730  0.85730  0.75000  Biso   1.000  O
  O21      1.0000 0.64270  0.85730  0.75000  Biso   1.000  O
  O22      1.0000 0.35730  0.14270  0.75000  Biso   1.000  O
  O23      1.0000 0.35730  0.85730  0.25000  Biso   1.000  O
  O24      1.0000 0.64270  0.14270  0.25000  Biso   1.000  O
  O25      1.0000 0.25729  0.00000  0.00000  Biso   1.000  O
  O26      1.0000 0.74272  0.00000  0.00000  Biso   1.000  O
  O27      1.0000 0.50000  0.24272  0.50000  Biso   1.000  O
  O28      1.0000 0.50000  0.75729  0.50000  Biso   1.000  O
  O29      1.0000 0.31312  0.68688  0.50000  Biso   1.000  O
  O30      1.0000 0.18688  0.81312  0.00000  Biso   1.000  O
  O31      1.0000 0.68688  0.68688  0.50000  Biso   1.000  O
  O32      1.0000 0.81312  0.81312  0.00000  Biso   1.000  O
  Ir1      1.0000 0.79009  0.61903  0.50000  Biso   1.000  Ir
  Ir2      1.0000 0.20991  0.38098  0.50000  Biso   1.000  Ir
  Ir3      1.0000 0.11903  0.70991  0.00000  Biso   1.000  Ir
  Ir4      1.0000 0.88098  0.29009  0.00000  Biso   1.000  Ir
  Ir5      1.0000 0.20991  0.61903  0.50000  Biso   1.000  Ir
  Ir6      1.0000 0.79009  0.38098  0.50000  Biso   1.000  Ir
  Ir7      1.0000 0.88098  0.70991  0.00000  Biso   1.000  Ir
  Ir8      1.0000 0.11903  0.29009  0.00000  Biso   1.000  Ir
  Ir9      1.0000 0.29009  0.11903  0.00000  Biso   1.000  Ir
  Ir10     1.0000 0.70991  0.88098  0.00000  Biso   1.000  Ir
  Ir11     1.0000 0.61903  0.20991  0.50000  Biso   1.000  Ir
  Ir12     1.0000 0.38098  0.79009  0.50000  Biso   1.000  Ir
  Ir13     1.0000 0.70991  0.11903  0.00000  Biso   1.000  Ir
  Ir14     1.0000 0.29009  0.88098  0.00000  Biso   1.000  Ir
  Ir15     1.0000 0.38098  0.20991  0.50000  Biso   1.000  Ir
  Ir16     1.0000 0.61903  0.79009  0.50000  Biso   1.000  Ir
