data_image0
_cell_length_a       10.2723
_cell_length_b       30.3239
_cell_length_c       35.3402
_cell_angle_alpha    90
_cell_angle_beta     90
_cell_angle_gamma    90

_symmetry_space_group_name_H-M    "P 1"
_symmetry_int_tables_number       1

loop_
  _symmetry_equiv_pos_as_xyz
  'x, y, z'

loop_
  _atom_site_label
  _atom_site_occupancy
  _atom_site_fract_x
  _atom_site_fract_y
  _atom_site_fract_z
  _atom_site_thermal_displace_type
  _atom_site_B_iso_or_equiv
  _atom_site_type_symbol
  O1       1.0000 0.81341  0.07841  0.19469  Biso   1.000  O
  O2       1.0000 0.18659  0.42159  0.69469  Biso   1.000  O
  O3       1.0000 0.68659  0.07841  0.30531  Biso   1.000  O
  O4       1.0000 0.31341  0.42159  0.80531  Biso   1.000  O
  O5       1.0000 0.68659  0.42159  0.80531  Biso   1.000  O
  O6       1.0000 0.31341  0.07841  0.30531  Biso   1.000  O
  O7       1.0000 0.81341  0.42159  0.69469  Biso   1.000  O
  O8       1.0000 0.18659  0.07841  0.19469  Biso   1.000  O
  O9       1.0000 0.78745  0.17032  0.33917  Biso   1.000  O
  O10      1.0000 0.21255  0.32968  0.83917  Biso   1.000  O
  O11      1.0000 0.71255  0.17032  0.16083  Biso   1.000  O
  O12      1.0000 0.28745  0.32968  0.66083  Biso   1.000  O
  O13      1.0000 0.71255  0.32968  0.66083  Biso   1.000  O
  O14      1.0000 0.28745  0.17032  0.16083  Biso   1.000  O
  O15      1.0000 0.78745  0.32968  0.83917  Biso   1.000  O
  O16      1.0000 0.21255  0.17032  0.33917  Biso   1.000  O
  O17      1.0000 0.00000  0.24072  0.55369  Biso   1.000  O
  O18      1.0000 0.00000  0.25928  0.05369  Biso   1.000  O
  O19      1.0000 0.50000  0.24072  0.94631  Biso   1.000  O
  O20      1.0000 0.50000  0.25928  0.44631  Biso   1.000  O
  O21      1.0000 0.28686  0.01335  0.83938  Biso   1.000  O
  O22      1.0000 0.71314  0.48665  0.33938  Biso   1.000  O
  O23      1.0000 0.21314  0.01335  0.66062  Biso   1.000  O
  O24      1.0000 0.78686  0.48665  0.16062  Biso   1.000  O
  O25      1.0000 0.21314  0.48665  0.16062  Biso   1.000  O
  O26      1.0000 0.78686  0.01335  0.66062  Biso   1.000  O
  O27      1.0000 0.28686  0.48665  0.33938  Biso   1.000  O
  O28      1.0000 0.71314  0.01335  0.83938  Biso   1.000  O
  O29      1.0000 0.00000  0.12403  0.96294  Biso   1.000  O
  O30      1.0000 0.00000  0.37597  0.46294  Biso   1.000  O
  O31      1.0000 0.50000  0.12403  0.53706  Biso   1.000  O
  O32      1.0000 0.50000  0.37597  0.03706  Biso   1.000  O
  O33      1.0000 0.20331  0.13386  0.07875  Biso   1.000  O
  O34      1.0000 0.79669  0.36614  0.57875  Biso   1.000  O
  O35      1.0000 0.29669  0.13386  0.42125  Biso   1.000  O
  O36      1.0000 0.70331  0.36614  0.92125  Biso   1.000  O
  O37      1.0000 0.29669  0.36614  0.92125  Biso   1.000  O
  O38      1.0000 0.70331  0.13386  0.42125  Biso   1.000  O
  O39      1.0000 0.20331  0.36614  0.57875  Biso   1.000  O
  O40      1.0000 0.79669  0.13386  0.07875  Biso   1.000  O
  O41      1.0000 0.27546  0.33238  0.44319  Biso   1.000  O
  O42      1.0000 0.72454  0.16762  0.94319  Biso   1.000  O
  O43      1.0000 0.22454  0.33238  0.05681  Biso   1.000  O
  O44      1.0000 0.77546  0.16762  0.55681  Biso   1.000  O
  O45      1.0000 0.22454  0.16762  0.55681  Biso   1.000  O
  O46      1.0000 0.77546  0.33238  0.05681  Biso   1.000  O
  O47      1.0000 0.27546  0.16762  0.94319  Biso   1.000  O
  O48      1.0000 0.72454  0.33238  0.44319  Biso   1.000  O
  O49      1.0000 0.72393  0.46908  0.57774  Biso   1.000  O
  O50      1.0000 0.27607  0.03092  0.07774  Biso   1.000  O
  O51      1.0000 0.77607  0.46908  0.92226  Biso   1.000  O
  O52      1.0000 0.22393  0.03092  0.42226  Biso   1.000  O
  O53      1.0000 0.77607  0.03092  0.42226  Biso   1.000  O
  O54      1.0000 0.22393  0.46908  0.92226  Biso   1.000  O
  O55      1.0000 0.72393  0.03092  0.07774  Biso   1.000  O
  O56      1.0000 0.27607  0.46908  0.57774  Biso   1.000  O
  O57      1.0000 0.72244  0.23600  0.08978  Biso   1.000  O
  O58      1.0000 0.27756  0.26400  0.58978  Biso   1.000  O
  O59      1.0000 0.77756  0.23600  0.41022  Biso   1.000  O
  O60      1.0000 0.22244  0.26400  0.91022  Biso   1.000  O
  O61      1.0000 0.77756  0.26400  0.91022  Biso   1.000  O
  O62      1.0000 0.22244  0.23600  0.41022  Biso   1.000  O
  O63      1.0000 0.72244  0.26400  0.58978  Biso   1.000  O
  O64      1.0000 0.27756  0.23600  0.08978  Biso   1.000  O
  O65      1.0000 0.50000  0.33637  0.80434  Biso   1.000  O
  O66      1.0000 0.50000  0.16363  0.30434  Biso   1.000  O
  O67      1.0000 0.00000  0.33637  0.69566  Biso   1.000  O
  O68      1.0000 0.00000  0.16363  0.19566  Biso   1.000  O
  O69      1.0000 0.25000  0.49673  0.25000  Biso   1.000  O
  O70      1.0000 0.75000  0.00327  0.75000  Biso   1.000  O
  O71      1.0000 0.25000  0.00327  0.75000  Biso   1.000  O
  O72      1.0000 0.75000  0.49673  0.25000  Biso   1.000  O
  O73      1.0000 0.00000  0.33847  0.90550  Biso   1.000  O
  O74      1.0000 0.00000  0.16153  0.40550  Biso   1.000  O
  O75      1.0000 0.50000  0.33847  0.59450  Biso   1.000  O
  O76      1.0000 0.50000  0.16153  0.09450  Biso   1.000  O
  O77      1.0000 0.50000  0.03873  0.90203  Biso   1.000  O
  O78      1.0000 0.50000  0.46127  0.40203  Biso   1.000  O
  O79      1.0000 0.00000  0.03873  0.59797  Biso   1.000  O
  O80      1.0000 0.00000  0.46127  0.09797  Biso   1.000  O
  O81      1.0000 0.00000  0.06304  0.04645  Biso   1.000  O
  O82      1.0000 0.00000  0.43696  0.54645  Biso   1.000  O
  O83      1.0000 0.50000  0.06304  0.45355  Biso   1.000  O
  O84      1.0000 0.50000  0.43696  0.95355  Biso   1.000  O
  O85      1.0000 0.76151  0.08469  0.50003  Biso   1.000  O
  O86      1.0000 0.23849  0.41531  0.00003  Biso   1.000  O
  O87      1.0000 0.73849  0.08469  0.99997  Biso   1.000  O
  O88      1.0000 0.26151  0.41531  0.49997  Biso   1.000  O
  O89      1.0000 0.73849  0.41531  0.49997  Biso   1.000  O
  O90      1.0000 0.26151  0.08469  0.99997  Biso   1.000  O
  O91      1.0000 0.76151  0.41531  0.00003  Biso   1.000  O
  O92      1.0000 0.23849  0.08469  0.50003  Biso   1.000  O
  O93      1.0000 0.00000  0.00681  0.80435  Biso   1.000  O
  O94      1.0000 0.00000  0.49319  0.30435  Biso   1.000  O
  O95      1.0000 0.50000  0.00681  0.69565  Biso   1.000  O
  O96      1.0000 0.50000  0.49319  0.19565  Biso   1.000  O
  O97      1.0000 0.70561  0.42822  0.08890  Biso   1.000  O
  O98      1.0000 0.29440  0.07178  0.58890  Biso   1.000  O
  O99      1.0000 0.79439  0.42822  0.41110  Biso   1.000  O
  O100     1.0000 0.20561  0.07178  0.91110  Biso   1.000  O
  O101     1.0000 0.79439  0.07178  0.91110  Biso   1.000  O
  O102     1.0000 0.20561  0.42822  0.41110  Biso   1.000  O
  O103     1.0000 0.70561  0.07178  0.58890  Biso   1.000  O
  O104     1.0000 0.29440  0.42822  0.08890  Biso   1.000  O
  O105     1.0000 0.25000  0.25000  0.00000  Biso   1.000  O
  O106     1.0000 0.75000  0.25000  0.50000  Biso   1.000  O
  O107     1.0000 0.25000  0.25000  0.50000  Biso   1.000  O
  O108     1.0000 0.75000  0.25000  0.00000  Biso   1.000  O
  O109     1.0000 0.25000  0.16000  0.25000  Biso   1.000  O
  O110     1.0000 0.75000  0.34000  0.75000  Biso   1.000  O
  O111     1.0000 0.25000  0.34000  0.75000  Biso   1.000  O
  O112     1.0000 0.75000  0.16000  0.25000  Biso   1.000  O
  O113     1.0000 0.31341  0.57841  0.19469  Biso   1.000  O
  O114     1.0000 0.68659  0.92159  0.69469  Biso   1.000  O
  O115     1.0000 0.18659  0.57841  0.30531  Biso   1.000  O
  O116     1.0000 0.81341  0.92159  0.80531  Biso   1.000  O
  O117     1.0000 0.18659  0.92159  0.80531  Biso   1.000  O
  O118     1.0000 0.81341  0.57841  0.30531  Biso   1.000  O
  O119     1.0000 0.31341  0.92159  0.69469  Biso   1.000  O
  O120     1.0000 0.68659  0.57841  0.19469  Biso   1.000  O
  O121     1.0000 0.28745  0.67032  0.33917  Biso   1.000  O
  O122     1.0000 0.71255  0.82968  0.83917  Biso   1.000  O
  O123     1.0000 0.21255  0.67032  0.16083  Biso   1.000  O
  O124     1.0000 0.78745  0.82968  0.66083  Biso   1.000  O
  O125     1.0000 0.21255  0.82968  0.66083  Biso   1.000  O
  O126     1.0000 0.78745  0.67032  0.16083  Biso   1.000  O
  O127     1.0000 0.28745  0.82968  0.83917  Biso   1.000  O
  O128     1.0000 0.71255  0.67032  0.33917  Biso   1.000  O
  O129     1.0000 0.50000  0.74072  0.55369  Biso   1.000  O
  O130     1.0000 0.50000  0.75928  0.05369  Biso   1.000  O
  O131     1.0000 0.00000  0.74072  0.94631  Biso   1.000  O
  O132     1.0000 0.00000  0.75928  0.44631  Biso   1.000  O
  O133     1.0000 0.78686  0.51335  0.83938  Biso   1.000  O
  O134     1.0000 0.21314  0.98665  0.33938  Biso   1.000  O
  O135     1.0000 0.71314  0.51335  0.66062  Biso   1.000  O
  O136     1.0000 0.28686  0.98665  0.16062  Biso   1.000  O
  O137     1.0000 0.71314  0.98665  0.16062  Biso   1.000  O
  O138     1.0000 0.28686  0.51335  0.66062  Biso   1.000  O
  O139     1.0000 0.78686  0.98665  0.33938  Biso   1.000  O
  O140     1.0000 0.21314  0.51335  0.83938  Biso   1.000  O
  O141     1.0000 0.50000  0.62403  0.96294  Biso   1.000  O
  O142     1.0000 0.50000  0.87597  0.46294  Biso   1.000  O
  O143     1.0000 0.00000  0.62403  0.53706  Biso   1.000  O
  O144     1.0000 0.00000  0.87597  0.03706  Biso   1.000  O
  O145     1.0000 0.70331  0.63386  0.07875  Biso   1.000  O
  O146     1.0000 0.29669  0.86614  0.57875  Biso   1.000  O
  O147     1.0000 0.79669  0.63386  0.42125  Biso   1.000  O
  O148     1.0000 0.20331  0.86614  0.92125  Biso   1.000  O
  O149     1.0000 0.79669  0.86614  0.92125  Biso   1.000  O
  O150     1.0000 0.20331  0.63386  0.42125  Biso   1.000  O
  O151     1.0000 0.70331  0.86614  0.57875  Biso   1.000  O
  O152     1.0000 0.29669  0.63386  0.07875  Biso   1.000  O
  O153     1.0000 0.77546  0.83238  0.44319  Biso   1.000  O
  O154     1.0000 0.22454  0.66762  0.94319  Biso   1.000  O
  O155     1.0000 0.72454  0.83238  0.05681  Biso   1.000  O
  O156     1.0000 0.27546  0.66762  0.55681  Biso   1.000  O
  O157     1.0000 0.72454  0.66762  0.55681  Biso   1.000  O
  O158     1.0000 0.27546  0.83238  0.05681  Biso   1.000  O
  O159     1.0000 0.77546  0.66762  0.94319  Biso   1.000  O
  O160     1.0000 0.22454  0.83238  0.44319  Biso   1.000  O
  O161     1.0000 0.22393  0.96908  0.57774  Biso   1.000  O
  O162     1.0000 0.77607  0.53092  0.07774  Biso   1.000  O
  O163     1.0000 0.27607  0.96908  0.92226  Biso   1.000  O
  O164     1.0000 0.72393  0.53092  0.42226  Biso   1.000  O
  O165     1.0000 0.27607  0.53092  0.42226  Biso   1.000  O
  O166     1.0000 0.72393  0.96908  0.92226  Biso   1.000  O
  O167     1.0000 0.22393  0.53092  0.07774  Biso   1.000  O
  O168     1.0000 0.77607  0.96908  0.57774  Biso   1.000  O
  O169     1.0000 0.22244  0.73600  0.08978  Biso   1.000  O
  O170     1.0000 0.77756  0.76400  0.58978  Biso   1.000  O
  O171     1.0000 0.27756  0.73600  0.41022  Biso   1.000  O
  O172     1.0000 0.72244  0.76400  0.91022  Biso   1.000  O
  O173     1.0000 0.27756  0.76400  0.91022  Biso   1.000  O
  O174     1.0000 0.72244  0.73600  0.41022  Biso   1.000  O
  O175     1.0000 0.22244  0.76400  0.58978  Biso   1.000  O
  O176     1.0000 0.77756  0.73600  0.08978  Biso   1.000  O
  O177     1.0000 0.00000  0.83637  0.80434  Biso   1.000  O
  O178     1.0000 0.00000  0.66363  0.30434  Biso   1.000  O
  O179     1.0000 0.50000  0.83637  0.69566  Biso   1.000  O
  O180     1.0000 0.50000  0.66363  0.19566  Biso   1.000  O
  O181     1.0000 0.75000  0.99673  0.25000  Biso   1.000  O
  O182     1.0000 0.25000  0.50327  0.75000  Biso   1.000  O
  O183     1.0000 0.75000  0.50327  0.75000  Biso   1.000  O
  O184     1.0000 0.25000  0.99673  0.25000  Biso   1.000  O
  O185     1.0000 0.50000  0.83847  0.90550  Biso   1.000  O
  O186     1.0000 0.50000  0.66153  0.40550  Biso   1.000  O
  O187     1.0000 0.00000  0.83847  0.59450  Biso   1.000  O
  O188     1.0000 0.00000  0.66153  0.09450  Biso   1.000  O
  O189     1.0000 0.00000  0.53873  0.90203  Biso   1.000  O
  O190     1.0000 0.00000  0.96127  0.40203  Biso   1.000  O
  O191     1.0000 0.50000  0.53873  0.59797  Biso   1.000  O
  O192     1.0000 0.50000  0.96127  0.09797  Biso   1.000  O
  O193     1.0000 0.50000  0.56304  0.04645  Biso   1.000  O
  O194     1.0000 0.50000  0.93696  0.54645  Biso   1.000  O
  O195     1.0000 0.00000  0.56304  0.45355  Biso   1.000  O
  O196     1.0000 0.00000  0.93696  0.95355  Biso   1.000  O
  O197     1.0000 0.26151  0.58469  0.50003  Biso   1.000  O
  O198     1.0000 0.73849  0.91531  0.00003  Biso   1.000  O
  O199     1.0000 0.23849  0.58469  0.99997  Biso   1.000  O
  O200     1.0000 0.76151  0.91531  0.49997  Biso   1.000  O
  O201     1.0000 0.23849  0.91531  0.49997  Biso   1.000  O
  O202     1.0000 0.76151  0.58469  0.99997  Biso   1.000  O
  O203     1.0000 0.26151  0.91531  0.00003  Biso   1.000  O
  O204     1.0000 0.73849  0.58469  0.50003  Biso   1.000  O
  O205     1.0000 0.50000  0.50681  0.80435  Biso   1.000  O
  O206     1.0000 0.50000  0.99319  0.30435  Biso   1.000  O
  O207     1.0000 0.00000  0.50681  0.69565  Biso   1.000  O
  O208     1.0000 0.00000  0.99319  0.19565  Biso   1.000  O
  O209     1.0000 0.20561  0.92822  0.08890  Biso   1.000  O
  O210     1.0000 0.79439  0.57178  0.58890  Biso   1.000  O
  O211     1.0000 0.29440  0.92822  0.41110  Biso   1.000  O
  O212     1.0000 0.70561  0.57178  0.91110  Biso   1.000  O
  O213     1.0000 0.29440  0.57178  0.91110  Biso   1.000  O
  O214     1.0000 0.70561  0.92822  0.41110  Biso   1.000  O
  O215     1.0000 0.20561  0.57178  0.58890  Biso   1.000  O
  O216     1.0000 0.79439  0.92822  0.08890  Biso   1.000  O
  O217     1.0000 0.75000  0.75000  0.00000  Biso   1.000  O
  O218     1.0000 0.25000  0.75000  0.50000  Biso   1.000  O
  O219     1.0000 0.75000  0.75000  0.50000  Biso   1.000  O
  O220     1.0000 0.25000  0.75000  0.00000  Biso   1.000  O
  O221     1.0000 0.75000  0.66000  0.25000  Biso   1.000  O
  O222     1.0000 0.25000  0.84000  0.75000  Biso   1.000  O
  O223     1.0000 0.75000  0.84000  0.75000  Biso   1.000  O
  O224     1.0000 0.25000  0.66000  0.25000  Biso   1.000  O
  Ir1      1.0000 0.31222  0.26943  0.45028  Biso   1.000  Ir
  Ir2      1.0000 0.68778  0.23057  0.95028  Biso   1.000  Ir
  Ir3      1.0000 0.18778  0.26943  0.04972  Biso   1.000  Ir
  Ir4      1.0000 0.81222  0.23057  0.54972  Biso   1.000  Ir
  Ir5      1.0000 0.18778  0.23057  0.54972  Biso   1.000  Ir
  Ir6      1.0000 0.81222  0.26943  0.04972  Biso   1.000  Ir
  Ir7      1.0000 0.31222  0.23057  0.95028  Biso   1.000  Ir
  Ir8      1.0000 0.68778  0.26943  0.45028  Biso   1.000  Ir
  Ir9      1.0000 0.68301  0.47693  0.39374  Biso   1.000  Ir
  Ir10     1.0000 0.31699  0.02307  0.89374  Biso   1.000  Ir
  Ir11     1.0000 0.81699  0.47693  0.10626  Biso   1.000  Ir
  Ir12     1.0000 0.18301  0.02307  0.60626  Biso   1.000  Ir
  Ir13     1.0000 0.81699  0.02307  0.60626  Biso   1.000  Ir
  Ir14     1.0000 0.18301  0.47693  0.10626  Biso   1.000  Ir
  Ir15     1.0000 0.68301  0.02307  0.89374  Biso   1.000  Ir
  Ir16     1.0000 0.31699  0.47693  0.39374  Biso   1.000  Ir
  Ir17     1.0000 0.68608  0.11214  0.54593  Biso   1.000  Ir
  Ir18     1.0000 0.31392  0.38786  0.04593  Biso   1.000  Ir
  Ir19     1.0000 0.81392  0.11214  0.95407  Biso   1.000  Ir
  Ir20     1.0000 0.18608  0.38786  0.45407  Biso   1.000  Ir
  Ir21     1.0000 0.81392  0.38786  0.45407  Biso   1.000  Ir
  Ir22     1.0000 0.18608  0.11214  0.95407  Biso   1.000  Ir
  Ir23     1.0000 0.68608  0.38786  0.04593  Biso   1.000  Ir
  Ir24     1.0000 0.31392  0.11214  0.54593  Biso   1.000  Ir
  Ir25     1.0000 0.31409  0.42207  0.94900  Biso   1.000  Ir
  Ir26     1.0000 0.68591  0.07793  0.44900  Biso   1.000  Ir
  Ir27     1.0000 0.18592  0.42207  0.55100  Biso   1.000  Ir
  Ir28     1.0000 0.81408  0.07793  0.05100  Biso   1.000  Ir
  Ir29     1.0000 0.18592  0.07793  0.05100  Biso   1.000  Ir
  Ir30     1.0000 0.81408  0.42207  0.55100  Biso   1.000  Ir
  Ir31     1.0000 0.31409  0.07793  0.44900  Biso   1.000  Ir
  Ir32     1.0000 0.68591  0.42207  0.94900  Biso   1.000  Ir
  Ir33     1.0000 0.18304  0.17553  0.39405  Biso   1.000  Ir
  Ir34     1.0000 0.81696  0.32447  0.89405  Biso   1.000  Ir
  Ir35     1.0000 0.31696  0.17553  0.10595  Biso   1.000  Ir
  Ir36     1.0000 0.68304  0.32447  0.60595  Biso   1.000  Ir
  Ir37     1.0000 0.31696  0.32447  0.60595  Biso   1.000  Ir
  Ir38     1.0000 0.68304  0.17553  0.10595  Biso   1.000  Ir
  Ir39     1.0000 0.18304  0.32447  0.89405  Biso   1.000  Ir
  Ir40     1.0000 0.81696  0.17553  0.39405  Biso   1.000  Ir
  Ir41     1.0000 0.68080  0.35719  0.79965  Biso   1.000  Ir
  Ir42     1.0000 0.31920  0.14281  0.29965  Biso   1.000  Ir
  Ir43     1.0000 0.81920  0.35719  0.70035  Biso   1.000  Ir
  Ir44     1.0000 0.18080  0.14281  0.20035  Biso   1.000  Ir
  Ir45     1.0000 0.81920  0.14281  0.20035  Biso   1.000  Ir
  Ir46     1.0000 0.18080  0.35719  0.70035  Biso   1.000  Ir
  Ir47     1.0000 0.68080  0.14281  0.29965  Biso   1.000  Ir
  Ir48     1.0000 0.31920  0.35719  0.79965  Biso   1.000  Ir
  Ir49     1.0000 0.31911  0.48612  0.79970  Biso   1.000  Ir
  Ir50     1.0000 0.68089  0.01388  0.29970  Biso   1.000  Ir
  Ir51     1.0000 0.18089  0.48612  0.70030  Biso   1.000  Ir
  Ir52     1.0000 0.81911  0.01388  0.20030  Biso   1.000  Ir
  Ir53     1.0000 0.18089  0.01388  0.20030  Biso   1.000  Ir
  Ir54     1.0000 0.81911  0.48612  0.70030  Biso   1.000  Ir
  Ir55     1.0000 0.31911  0.01388  0.29970  Biso   1.000  Ir
  Ir56     1.0000 0.68089  0.48612  0.79970  Biso   1.000  Ir
  Ir57     1.0000 0.81222  0.76943  0.45028  Biso   1.000  Ir
  Ir58     1.0000 0.18778  0.73057  0.95028  Biso   1.000  Ir
  Ir59     1.0000 0.68778  0.76943  0.04972  Biso   1.000  Ir
  Ir60     1.0000 0.31222  0.73057  0.54972  Biso   1.000  Ir
  Ir61     1.0000 0.68778  0.73057  0.54972  Biso   1.000  Ir
  Ir62     1.0000 0.31222  0.76943  0.04972  Biso   1.000  Ir
  Ir63     1.0000 0.81222  0.73057  0.95028  Biso   1.000  Ir
  Ir64     1.0000 0.18778  0.76943  0.45028  Biso   1.000  Ir
  Ir65     1.0000 0.18301  0.97693  0.39374  Biso   1.000  Ir
  Ir66     1.0000 0.81699  0.52307  0.89374  Biso   1.000  Ir
  Ir67     1.0000 0.31699  0.97693  0.10626  Biso   1.000  Ir
  Ir68     1.0000 0.68301  0.52307  0.60626  Biso   1.000  Ir
  Ir69     1.0000 0.31699  0.52307  0.60626  Biso   1.000  Ir
  Ir70     1.0000 0.68301  0.97693  0.10626  Biso   1.000  Ir
  Ir71     1.0000 0.18301  0.52307  0.89374  Biso   1.000  Ir
  Ir72     1.0000 0.81699  0.97693  0.39374  Biso   1.000  Ir
  Ir73     1.0000 0.18608  0.61214  0.54593  Biso   1.000  Ir
  Ir74     1.0000 0.81392  0.88786  0.04593  Biso   1.000  Ir
  Ir75     1.0000 0.31392  0.61214  0.95407  Biso   1.000  Ir
  Ir76     1.0000 0.68608  0.88786  0.45407  Biso   1.000  Ir
  Ir77     1.0000 0.31392  0.88786  0.45407  Biso   1.000  Ir
  Ir78     1.0000 0.68608  0.61214  0.95407  Biso   1.000  Ir
  Ir79     1.0000 0.18608  0.88786  0.04593  Biso   1.000  Ir
  Ir80     1.0000 0.81392  0.61214  0.54593  Biso   1.000  Ir
  Ir81     1.0000 0.81408  0.92207  0.94900  Biso   1.000  Ir
  Ir82     1.0000 0.18592  0.57793  0.44900  Biso   1.000  Ir
  Ir83     1.0000 0.68591  0.92207  0.55100  Biso   1.000  Ir
  Ir84     1.0000 0.31409  0.57793  0.05100  Biso   1.000  Ir
  Ir85     1.0000 0.68591  0.57793  0.05100  Biso   1.000  Ir
  Ir86     1.0000 0.31409  0.92207  0.55100  Biso   1.000  Ir
  Ir87     1.0000 0.81408  0.57793  0.44900  Biso   1.000  Ir
  Ir88     1.0000 0.18592  0.92207  0.94900  Biso   1.000  Ir
  Ir89     1.0000 0.68304  0.67553  0.39405  Biso   1.000  Ir
  Ir90     1.0000 0.31696  0.82447  0.89405  Biso   1.000  Ir
  Ir91     1.0000 0.81696  0.67553  0.10595  Biso   1.000  Ir
  Ir92     1.0000 0.18304  0.82447  0.60595  Biso   1.000  Ir
  Ir93     1.0000 0.81696  0.82447  0.60595  Biso   1.000  Ir
  Ir94     1.0000 0.18304  0.67553  0.10595  Biso   1.000  Ir
  Ir95     1.0000 0.68304  0.82447  0.89405  Biso   1.000  Ir
  Ir96     1.0000 0.31696  0.67553  0.39405  Biso   1.000  Ir
  Ir97     1.0000 0.18080  0.85719  0.79965  Biso   1.000  Ir
  Ir98     1.0000 0.81920  0.64281  0.29965  Biso   1.000  Ir
  Ir99     1.0000 0.31920  0.85719  0.70035  Biso   1.000  Ir
  Ir100    1.0000 0.68080  0.64281  0.20035  Biso   1.000  Ir
  Ir101    1.0000 0.31920  0.64281  0.20035  Biso   1.000  Ir
  Ir102    1.0000 0.68080  0.85719  0.70035  Biso   1.000  Ir
  Ir103    1.0000 0.18080  0.64281  0.29965  Biso   1.000  Ir
  Ir104    1.0000 0.81920  0.85719  0.79965  Biso   1.000  Ir
  Ir105    1.0000 0.81911  0.98612  0.79970  Biso   1.000  Ir
  Ir106    1.0000 0.18089  0.51388  0.29970  Biso   1.000  Ir
  Ir107    1.0000 0.68089  0.98612  0.70030  Biso   1.000  Ir
  Ir108    1.0000 0.31911  0.51388  0.20030  Biso   1.000  Ir
  Ir109    1.0000 0.68089  0.51388  0.20030  Biso   1.000  Ir
  Ir110    1.0000 0.31911  0.98612  0.70030  Biso   1.000  Ir
  Ir111    1.0000 0.81911  0.51388  0.29970  Biso   1.000  Ir
  Ir112    1.0000 0.18089  0.98612  0.79970  Biso   1.000  Ir
