data_image0
_cell_length_a       21.5993
_cell_length_b       21.5994
_cell_length_c       13.8774
_cell_angle_alpha    90
_cell_angle_beta     90
_cell_angle_gamma    120

_symmetry_space_group_name_H-M    "P 1"
_symmetry_int_tables_number       1

loop_
  _symmetry_equiv_pos_as_xyz
  'x, y, z'

loop_
  _atom_site_label
  _atom_site_occupancy
  _atom_site_fract_x
  _atom_site_fract_y
  _atom_site_fract_z
  _atom_site_thermal_displace_type
  _atom_site_B_iso_or_equiv
  _atom_site_type_symbol
  O1       1.0000 0.33333  0.66667  0.00000  Biso   1.000  O
  O2       1.0000 0.66667  0.33333  0.00000  Biso   1.000  O
  O3       1.0000 0.50000  0.00000  0.67487  Biso   1.000  O
  O4       1.0000 0.00000  0.50000  0.67487  Biso   1.000  O
  O5       1.0000 0.50000  0.50000  0.67487  Biso   1.000  O
  O6       1.0000 0.00000  0.50000  0.32513  Biso   1.000  O
  O7       1.0000 0.50000  0.00000  0.32513  Biso   1.000  O
  O8       1.0000 0.50000  0.50000  0.32513  Biso   1.000  O
  O9       1.0000 0.81517  0.00000  0.00000  Biso   1.000  O
  O10      1.0000 0.00000  0.81517  0.00000  Biso   1.000  O
  O11      1.0000 0.18483  0.18483  0.00000  Biso   1.000  O
  O12      1.0000 0.18483  0.00000  0.00000  Biso   1.000  O
  O13      1.0000 0.00000  0.18483  0.00000  Biso   1.000  O
  O14      1.0000 0.81517  0.81517  0.00000  Biso   1.000  O
  O15      1.0000 0.62313  0.00000  0.50000  Biso   1.000  O
  O16      1.0000 0.00000  0.62313  0.50000  Biso   1.000  O
  O17      1.0000 0.37687  0.37687  0.50000  Biso   1.000  O
  O18      1.0000 0.37687  0.00000  0.50000  Biso   1.000  O
  O19      1.0000 0.00000  0.37687  0.50000  Biso   1.000  O
  O20      1.0000 0.62313  0.62313  0.50000  Biso   1.000  O
  O21      1.0000 0.83091  0.66182  0.88559  Biso   1.000  O
  O22      1.0000 0.33818  0.16909  0.88559  Biso   1.000  O
  O23      1.0000 0.83091  0.16909  0.88559  Biso   1.000  O
  O24      1.0000 0.16909  0.33818  0.88559  Biso   1.000  O
  O25      1.0000 0.66182  0.83091  0.88559  Biso   1.000  O
  O26      1.0000 0.16909  0.83091  0.88559  Biso   1.000  O
  O27      1.0000 0.66182  0.83091  0.11441  Biso   1.000  O
  O28      1.0000 0.16909  0.33818  0.11441  Biso   1.000  O
  O29      1.0000 0.16909  0.83091  0.11441  Biso   1.000  O
  O30      1.0000 0.33818  0.16909  0.11441  Biso   1.000  O
  O31      1.0000 0.83091  0.66182  0.11441  Biso   1.000  O
  O32      1.0000 0.83091  0.16909  0.11441  Biso   1.000  O
  O33      1.0000 0.72851  0.45701  0.18637  Biso   1.000  O
  O34      1.0000 0.54299  0.27149  0.18637  Biso   1.000  O
  O35      1.0000 0.72851  0.27149  0.18637  Biso   1.000  O
  O36      1.0000 0.27149  0.54299  0.18637  Biso   1.000  O
  O37      1.0000 0.45701  0.72851  0.18637  Biso   1.000  O
  O38      1.0000 0.27149  0.72851  0.18637  Biso   1.000  O
  O39      1.0000 0.45701  0.72851  0.81363  Biso   1.000  O
  O40      1.0000 0.27149  0.54299  0.81363  Biso   1.000  O
  O41      1.0000 0.27149  0.72851  0.81363  Biso   1.000  O
  O42      1.0000 0.54299  0.27149  0.81363  Biso   1.000  O
  O43      1.0000 0.72851  0.45701  0.81363  Biso   1.000  O
  O44      1.0000 0.72851  0.27149  0.81363  Biso   1.000  O
  O45      1.0000 0.10604  0.39340  0.30642  Biso   1.000  O
  O46      1.0000 0.60660  0.71264  0.30642  Biso   1.000  O
  O47      1.0000 0.28736  0.89396  0.30642  Biso   1.000  O
  O48      1.0000 0.89396  0.60660  0.30642  Biso   1.000  O
  O49      1.0000 0.39340  0.28736  0.30642  Biso   1.000  O
  O50      1.0000 0.71264  0.10604  0.30642  Biso   1.000  O
  O51      1.0000 0.39340  0.10604  0.69358  Biso   1.000  O
  O52      1.0000 0.71264  0.60660  0.69358  Biso   1.000  O
  O53      1.0000 0.89396  0.28736  0.69358  Biso   1.000  O
  O54      1.0000 0.60660  0.89396  0.69358  Biso   1.000  O
  O55      1.0000 0.28736  0.39340  0.69358  Biso   1.000  O
  O56      1.0000 0.10604  0.71264  0.69358  Biso   1.000  O
  O57      1.0000 0.89396  0.60660  0.69358  Biso   1.000  O
  O58      1.0000 0.39340  0.28736  0.69358  Biso   1.000  O
  O59      1.0000 0.71264  0.10604  0.69358  Biso   1.000  O
  O60      1.0000 0.10604  0.39340  0.69358  Biso   1.000  O
  O61      1.0000 0.60660  0.71264  0.69358  Biso   1.000  O
  O62      1.0000 0.28736  0.89396  0.69358  Biso   1.000  O
  O63      1.0000 0.60660  0.89396  0.30642  Biso   1.000  O
  O64      1.0000 0.28736  0.39340  0.30642  Biso   1.000  O
  O65      1.0000 0.10604  0.71264  0.30642  Biso   1.000  O
  O66      1.0000 0.39340  0.10604  0.30642  Biso   1.000  O
  O67      1.0000 0.71264  0.60660  0.30642  Biso   1.000  O
  O68      1.0000 0.89396  0.28736  0.30642  Biso   1.000  O
  Ir1      1.0000 0.33333  0.66667  0.85954  Biso   1.000  Ir
  Ir2      1.0000 0.66667  0.33333  0.85954  Biso   1.000  Ir
  Ir3      1.0000 0.66667  0.33333  0.14046  Biso   1.000  Ir
  Ir4      1.0000 0.33333  0.66667  0.14046  Biso   1.000  Ir
  Ir5      1.0000 0.13063  0.26125  0.00000  Biso   1.000  Ir
  Ir6      1.0000 0.73875  0.86938  0.00000  Biso   1.000  Ir
  Ir7      1.0000 0.13063  0.86938  0.00000  Biso   1.000  Ir
  Ir8      1.0000 0.86938  0.73875  0.00000  Biso   1.000  Ir
  Ir9      1.0000 0.26125  0.13062  0.00000  Biso   1.000  Ir
  Ir10     1.0000 0.86938  0.13062  0.00000  Biso   1.000  Ir
  Ir11     1.0000 0.61017  0.00000  0.64001  Biso   1.000  Ir
  Ir12     1.0000 0.00000  0.61017  0.64001  Biso   1.000  Ir
  Ir13     1.0000 0.38983  0.38983  0.64001  Biso   1.000  Ir
  Ir14     1.0000 0.38983  0.00000  0.64001  Biso   1.000  Ir
  Ir15     1.0000 0.00000  0.38983  0.64001  Biso   1.000  Ir
  Ir16     1.0000 0.61017  0.61017  0.64001  Biso   1.000  Ir
  Ir17     1.0000 0.00000  0.61017  0.35999  Biso   1.000  Ir
  Ir18     1.0000 0.61017  0.00000  0.35999  Biso   1.000  Ir
  Ir19     1.0000 0.38983  0.38983  0.35999  Biso   1.000  Ir
  Ir20     1.0000 0.00000  0.38983  0.35999  Biso   1.000  Ir
  Ir21     1.0000 0.38983  0.00000  0.35999  Biso   1.000  Ir
  Ir22     1.0000 0.61017  0.61017  0.35999  Biso   1.000  Ir
  Ir23     1.0000 0.79125  0.58250  0.77331  Biso   1.000  Ir
  Ir24     1.0000 0.41750  0.20875  0.77331  Biso   1.000  Ir
  Ir25     1.0000 0.79125  0.20875  0.77331  Biso   1.000  Ir
  Ir26     1.0000 0.20875  0.41750  0.77331  Biso   1.000  Ir
  Ir27     1.0000 0.58250  0.79125  0.77331  Biso   1.000  Ir
  Ir28     1.0000 0.20875  0.79125  0.77331  Biso   1.000  Ir
  Ir29     1.0000 0.58250  0.79125  0.22669  Biso   1.000  Ir
  Ir30     1.0000 0.20875  0.41750  0.22669  Biso   1.000  Ir
  Ir31     1.0000 0.20875  0.79125  0.22669  Biso   1.000  Ir
  Ir32     1.0000 0.41750  0.20875  0.22669  Biso   1.000  Ir
  Ir33     1.0000 0.79125  0.58250  0.22669  Biso   1.000  Ir
  Ir34     1.0000 0.79125  0.20875  0.22669  Biso   1.000  Ir
