data_image0
_cell_length_a       5.41613
_cell_length_b       5.41612
_cell_length_c       67.0407
_cell_angle_alpha    90
_cell_angle_beta     90
_cell_angle_gamma    120

_symmetry_space_group_name_H-M    "P 1"
_symmetry_int_tables_number       1

loop_
  _symmetry_equiv_pos_as_xyz
  'x, y, z'

loop_
  _atom_site_label
  _atom_site_occupancy
  _atom_site_fract_x
  _atom_site_fract_y
  _atom_site_fract_z
  _atom_site_thermal_displace_type
  _atom_site_B_iso_or_equiv
  _atom_site_type_symbol
  Ir1      1.0000 0.33333  0.66667  0.80556  Biso   1.000  Ir
  Ir2      1.0000 0.00000  0.00000  0.58332  Biso   1.000  Ir
  Ir3      1.0000 0.33333  0.66667  0.47222  Biso   1.000  Ir
  Ir4      1.0000 0.33333  0.66667  0.91665  Biso   1.000  Ir
  Ir5      1.0000 0.33333  0.66667  0.69443  Biso   1.000  Ir
  Ir6      1.0000 0.00000  0.00000  0.02780  Biso   1.000  Ir
  Ir7      1.0000 0.33333  0.66667  0.13890  Biso   1.000  Ir
  Ir8      1.0000 0.33333  0.66667  0.36109  Biso   1.000  Ir
  Ir9      1.0000 0.00000  0.00000  0.25002  Biso   1.000  Ir
  O1       1.0000 0.00000  0.00000  0.33535  Biso   1.000  O
  O2       1.0000 0.66667  0.33333  0.72019  Biso   1.000  O
  O3       1.0000 0.33333  0.66667  0.55757  Biso   1.000  O
  O4       1.0000 0.33333  0.66667  0.22428  Biso   1.000  O
  O5       1.0000 0.66667  0.33333  0.27578  Biso   1.000  O
  O6       1.0000 0.66667  0.33333  0.05355  Biso   1.000  O
  O7       1.0000 0.66667  0.33333  0.60907  Biso   1.000  O
  O8       1.0000 0.00000  0.00000  0.89090  Biso   1.000  O
  O9       1.0000 0.66667  0.33333  0.94239  Biso   1.000  O
  O10      1.0000 0.00000  0.00000  0.11316  Biso   1.000  O
  O11      1.0000 0.33333  0.66667  0.00207  Biso   1.000  O
  O12      1.0000 0.00000  0.00000  0.44647  Biso   1.000  O
  O13      1.0000 0.66667  0.33333  0.16464  Biso   1.000  O
  O14      1.0000 0.00000  0.00000  0.77980  Biso   1.000  O
  O15      1.0000 0.66667  0.33333  0.38682  Biso   1.000  O
  O16      1.0000 0.66667  0.33333  0.83134  Biso   1.000  O
  O17      1.0000 0.00000  0.00000  0.66866  Biso   1.000  O
  O18      1.0000 0.66667  0.33333  0.49798  Biso   1.000  O
