data_image0
_cell_length_a       18.1994
_cell_length_b       18.1994
_cell_length_c       18.1994
_cell_angle_alpha    90
_cell_angle_beta     90
_cell_angle_gamma    90

_symmetry_space_group_name_H-M    "P 1"
_symmetry_int_tables_number       1

loop_
  _symmetry_equiv_pos_as_xyz
  'x, y, z'

loop_
  _atom_site_label
  _atom_site_occupancy
  _atom_site_fract_x
  _atom_site_fract_y
  _atom_site_fract_z
  _atom_site_thermal_displace_type
  _atom_site_B_iso_or_equiv
  _atom_site_type_symbol
  O1       1.0000 0.36958  0.16515  0.16515  Biso   1.000  O
  O2       1.0000 0.86958  0.33485  0.33485  Biso   1.000  O
  O3       1.0000 0.63042  0.83485  0.16515  Biso   1.000  O
  O4       1.0000 0.63042  0.16515  0.83485  Biso   1.000  O
  O5       1.0000 0.16515  0.36958  0.16515  Biso   1.000  O
  O6       1.0000 0.33485  0.86958  0.33485  Biso   1.000  O
  O7       1.0000 0.16515  0.63042  0.83485  Biso   1.000  O
  O8       1.0000 0.83485  0.63042  0.16515  Biso   1.000  O
  O9       1.0000 0.16515  0.16515  0.36958  Biso   1.000  O
  O10      1.0000 0.33485  0.33485  0.86958  Biso   1.000  O
  O11      1.0000 0.83485  0.16515  0.63042  Biso   1.000  O
  O12      1.0000 0.16515  0.83485  0.63042  Biso   1.000  O
  O13      1.0000 0.63042  0.16515  0.16515  Biso   1.000  O
  O14      1.0000 0.13042  0.33485  0.33485  Biso   1.000  O
  O15      1.0000 0.36958  0.16515  0.83485  Biso   1.000  O
  O16      1.0000 0.36958  0.83485  0.16515  Biso   1.000  O
  O17      1.0000 0.83485  0.16515  0.36958  Biso   1.000  O
  O18      1.0000 0.16515  0.83485  0.36958  Biso   1.000  O
  O19      1.0000 0.33485  0.33485  0.13042  Biso   1.000  O
  O20      1.0000 0.16515  0.16515  0.63042  Biso   1.000  O
  O21      1.0000 0.83485  0.36958  0.16515  Biso   1.000  O
  O22      1.0000 0.16515  0.36958  0.83485  Biso   1.000  O
  O23      1.0000 0.16515  0.63042  0.16515  Biso   1.000  O
  O24      1.0000 0.33485  0.13042  0.33485  Biso   1.000  O
  O25      1.0000 0.27667  0.50000  0.11986  Biso   1.000  O
  O26      1.0000 0.27667  0.50000  0.88014  Biso   1.000  O
  O27      1.0000 0.22333  0.00000  0.61986  Biso   1.000  O
  O28      1.0000 0.22333  0.00000  0.38014  Biso   1.000  O
  O29      1.0000 0.11986  0.27667  0.50000  Biso   1.000  O
  O30      1.0000 0.88014  0.27667  0.50000  Biso   1.000  O
  O31      1.0000 0.61986  0.22333  0.00000  Biso   1.000  O
  O32      1.0000 0.38014  0.22333  0.00000  Biso   1.000  O
  O33      1.0000 0.50000  0.11986  0.27667  Biso   1.000  O
  O34      1.0000 0.50000  0.88014  0.27667  Biso   1.000  O
  O35      1.0000 0.00000  0.61986  0.22333  Biso   1.000  O
  O36      1.0000 0.00000  0.38014  0.22333  Biso   1.000  O
  O37      1.0000 0.22333  0.61986  0.00000  Biso   1.000  O
  O38      1.0000 0.22333  0.38014  0.00000  Biso   1.000  O
  O39      1.0000 0.27667  0.11986  0.50000  Biso   1.000  O
  O40      1.0000 0.27667  0.88014  0.50000  Biso   1.000  O
  O41      1.0000 0.88014  0.50000  0.27667  Biso   1.000  O
  O42      1.0000 0.11986  0.50000  0.27667  Biso   1.000  O
  O43      1.0000 0.38014  0.00000  0.22333  Biso   1.000  O
  O44      1.0000 0.61986  0.00000  0.22333  Biso   1.000  O
  O45      1.0000 0.50000  0.27667  0.11986  Biso   1.000  O
  O46      1.0000 0.50000  0.27667  0.88014  Biso   1.000  O
  O47      1.0000 0.00000  0.22333  0.61986  Biso   1.000  O
  O48      1.0000 0.00000  0.22333  0.38014  Biso   1.000  O
  O49      1.0000 0.86958  0.66515  0.66515  Biso   1.000  O
  O50      1.0000 0.36958  0.83485  0.83485  Biso   1.000  O
  O51      1.0000 0.13042  0.33485  0.66515  Biso   1.000  O
  O52      1.0000 0.13042  0.66515  0.33485  Biso   1.000  O
  O53      1.0000 0.66515  0.86958  0.66515  Biso   1.000  O
  O54      1.0000 0.83485  0.36958  0.83485  Biso   1.000  O
  O55      1.0000 0.66515  0.13042  0.33485  Biso   1.000  O
  O56      1.0000 0.33485  0.13042  0.66515  Biso   1.000  O
  O57      1.0000 0.66515  0.66515  0.86958  Biso   1.000  O
  O58      1.0000 0.83485  0.83485  0.36958  Biso   1.000  O
  O59      1.0000 0.33485  0.66515  0.13042  Biso   1.000  O
  O60      1.0000 0.66515  0.33485  0.13042  Biso   1.000  O
  O61      1.0000 0.13042  0.66515  0.66515  Biso   1.000  O
  O62      1.0000 0.63042  0.83485  0.83485  Biso   1.000  O
  O63      1.0000 0.86958  0.66515  0.33485  Biso   1.000  O
  O64      1.0000 0.86958  0.33485  0.66515  Biso   1.000  O
  O65      1.0000 0.33485  0.66515  0.86958  Biso   1.000  O
  O66      1.0000 0.66515  0.33485  0.86958  Biso   1.000  O
  O67      1.0000 0.83485  0.83485  0.63042  Biso   1.000  O
  O68      1.0000 0.66515  0.66515  0.13042  Biso   1.000  O
  O69      1.0000 0.33485  0.86958  0.66515  Biso   1.000  O
  O70      1.0000 0.66515  0.86958  0.33485  Biso   1.000  O
  O71      1.0000 0.66515  0.13042  0.66515  Biso   1.000  O
  O72      1.0000 0.83485  0.63042  0.83485  Biso   1.000  O
  O73      1.0000 0.77667  0.00000  0.61986  Biso   1.000  O
  O74      1.0000 0.77667  0.00000  0.38014  Biso   1.000  O
  O75      1.0000 0.72333  0.50000  0.11986  Biso   1.000  O
  O76      1.0000 0.72333  0.50000  0.88014  Biso   1.000  O
  O77      1.0000 0.61986  0.77667  0.00000  Biso   1.000  O
  O78      1.0000 0.38014  0.77667  0.00000  Biso   1.000  O
  O79      1.0000 0.11986  0.72333  0.50000  Biso   1.000  O
  O80      1.0000 0.88014  0.72333  0.50000  Biso   1.000  O
  O81      1.0000 0.00000  0.61986  0.77667  Biso   1.000  O
  O82      1.0000 0.00000  0.38014  0.77667  Biso   1.000  O
  O83      1.0000 0.50000  0.11986  0.72333  Biso   1.000  O
  O84      1.0000 0.50000  0.88014  0.72333  Biso   1.000  O
  O85      1.0000 0.72333  0.11986  0.50000  Biso   1.000  O
  O86      1.0000 0.72333  0.88014  0.50000  Biso   1.000  O
  O87      1.0000 0.77667  0.61986  0.00000  Biso   1.000  O
  O88      1.0000 0.77667  0.38014  0.00000  Biso   1.000  O
  O89      1.0000 0.38014  0.00000  0.77667  Biso   1.000  O
  O90      1.0000 0.61986  0.00000  0.77667  Biso   1.000  O
  O91      1.0000 0.88014  0.50000  0.72333  Biso   1.000  O
  O92      1.0000 0.11986  0.50000  0.72333  Biso   1.000  O
  O93      1.0000 0.00000  0.77667  0.61986  Biso   1.000  O
  O94      1.0000 0.00000  0.77667  0.38014  Biso   1.000  O
  O95      1.0000 0.50000  0.72333  0.11986  Biso   1.000  O
  O96      1.0000 0.50000  0.72333  0.88014  Biso   1.000  O
  Ir1      1.0000 0.60379  0.25000  0.89621  Biso   1.000  Ir
  Ir2      1.0000 0.10379  0.25000  0.60379  Biso   1.000  Ir
  Ir3      1.0000 0.89621  0.25000  0.39621  Biso   1.000  Ir
  Ir4      1.0000 0.39621  0.25000  0.10379  Biso   1.000  Ir
  Ir5      1.0000 0.89621  0.60379  0.25000  Biso   1.000  Ir
  Ir6      1.0000 0.60379  0.10379  0.25000  Biso   1.000  Ir
  Ir7      1.0000 0.39621  0.89621  0.25000  Biso   1.000  Ir
  Ir8      1.0000 0.10379  0.39621  0.25000  Biso   1.000  Ir
  Ir9      1.0000 0.25000  0.89621  0.60379  Biso   1.000  Ir
  Ir10     1.0000 0.25000  0.60379  0.10379  Biso   1.000  Ir
  Ir11     1.0000 0.25000  0.39621  0.89621  Biso   1.000  Ir
  Ir12     1.0000 0.25000  0.10379  0.39621  Biso   1.000  Ir
  Ir13     1.0000 0.89621  0.25000  0.60379  Biso   1.000  Ir
  Ir14     1.0000 0.39621  0.25000  0.89621  Biso   1.000  Ir
  Ir15     1.0000 0.60379  0.25000  0.10379  Biso   1.000  Ir
  Ir16     1.0000 0.10379  0.25000  0.39621  Biso   1.000  Ir
  Ir17     1.0000 0.60379  0.89621  0.25000  Biso   1.000  Ir
  Ir18     1.0000 0.89621  0.39621  0.25000  Biso   1.000  Ir
  Ir19     1.0000 0.10379  0.60379  0.25000  Biso   1.000  Ir
  Ir20     1.0000 0.39621  0.10379  0.25000  Biso   1.000  Ir
  Ir21     1.0000 0.25000  0.60379  0.89621  Biso   1.000  Ir
  Ir22     1.0000 0.25000  0.89621  0.39621  Biso   1.000  Ir
  Ir23     1.0000 0.25000  0.10379  0.60379  Biso   1.000  Ir
  Ir24     1.0000 0.25000  0.39621  0.10379  Biso   1.000  Ir
  Ir25     1.0000 0.10379  0.75000  0.39621  Biso   1.000  Ir
  Ir26     1.0000 0.60379  0.75000  0.10379  Biso   1.000  Ir
  Ir27     1.0000 0.39621  0.75000  0.89621  Biso   1.000  Ir
  Ir28     1.0000 0.89621  0.75000  0.60379  Biso   1.000  Ir
  Ir29     1.0000 0.39621  0.10379  0.75000  Biso   1.000  Ir
  Ir30     1.0000 0.10379  0.60379  0.75000  Biso   1.000  Ir
  Ir31     1.0000 0.89621  0.39621  0.75000  Biso   1.000  Ir
  Ir32     1.0000 0.60379  0.89621  0.75000  Biso   1.000  Ir
  Ir33     1.0000 0.75000  0.39621  0.10379  Biso   1.000  Ir
  Ir34     1.0000 0.75000  0.10379  0.60379  Biso   1.000  Ir
  Ir35     1.0000 0.75000  0.89621  0.39621  Biso   1.000  Ir
  Ir36     1.0000 0.75000  0.60379  0.89621  Biso   1.000  Ir
  Ir37     1.0000 0.39621  0.75000  0.10379  Biso   1.000  Ir
  Ir38     1.0000 0.89621  0.75000  0.39621  Biso   1.000  Ir
  Ir39     1.0000 0.10379  0.75000  0.60379  Biso   1.000  Ir
  Ir40     1.0000 0.60379  0.75000  0.89621  Biso   1.000  Ir
  Ir41     1.0000 0.10379  0.39621  0.75000  Biso   1.000  Ir
  Ir42     1.0000 0.39621  0.89621  0.75000  Biso   1.000  Ir
  Ir43     1.0000 0.60379  0.10379  0.75000  Biso   1.000  Ir
  Ir44     1.0000 0.89621  0.60379  0.75000  Biso   1.000  Ir
  Ir45     1.0000 0.75000  0.10379  0.39621  Biso   1.000  Ir
  Ir46     1.0000 0.75000  0.39621  0.89621  Biso   1.000  Ir
  Ir47     1.0000 0.75000  0.60379  0.10379  Biso   1.000  Ir
  Ir48     1.0000 0.75000  0.89621  0.60379  Biso   1.000  Ir
