data_image0
_cell_length_a       3.34497
_cell_length_b       4.07936
_cell_length_c       5.74646
_cell_angle_alpha    90
_cell_angle_beta     90
_cell_angle_gamma    90

_symmetry_space_group_name_H-M    "P 1"
_symmetry_int_tables_number       1

loop_
  _symmetry_equiv_pos_as_xyz
  'x, y, z'

loop_
  _atom_site_label
  _atom_site_occupancy
  _atom_site_fract_x
  _atom_site_fract_y
  _atom_site_fract_z
  _atom_site_thermal_displace_type
  _atom_site_B_iso_or_equiv
  _atom_site_type_symbol
  Ir1      1.0000 0.00000  0.34875  0.20256  Biso   1.000  Ir
  Ir2      1.0000 0.00000  0.65125  0.70256  Biso   1.000  Ir
  O1       1.0000 0.00000  0.86257  0.34759  Biso   1.000  O
  O2       1.0000 0.00000  0.13743  0.84759  Biso   1.000  O
  O3       1.0000 0.50000  0.39405  0.48285  Biso   1.000  O
  O4       1.0000 0.50000  0.60595  0.98285  Biso   1.000  O
