data_image0
_cell_length_a       8.35724
_cell_length_b       4.71648
_cell_length_c       10.9164
_cell_angle_alpha    90
_cell_angle_beta     111.454
_cell_angle_gamma    90

_symmetry_space_group_name_H-M    "P 1"
_symmetry_int_tables_number       1

loop_
  _symmetry_equiv_pos_as_xyz
  'x, y, z'

loop_
  _atom_site_label
  _atom_site_occupancy
  _atom_site_fract_x
  _atom_site_fract_y
  _atom_site_fract_z
  _atom_site_thermal_displace_type
  _atom_site_B_iso_or_equiv
  _atom_site_type_symbol
  Ir1      1.0000 0.28963  0.25000  0.34905  Biso   1.000  Ir
  Ir2      1.0000 0.71037  0.75000  0.65095  Biso   1.000  Ir
  Ir3      1.0000 0.60614  0.25000  0.76650  Biso   1.000  Ir
  Ir4      1.0000 0.39386  0.75000  0.23350  Biso   1.000  Ir
  Ir5      1.0000 0.62082  0.25000  0.26537  Biso   1.000  Ir
  Ir6      1.0000 0.37918  0.75000  0.73463  Biso   1.000  Ir
  Ir7      1.0000 0.28403  0.25000  0.09797  Biso   1.000  Ir
  Ir8      1.0000 0.71597  0.75000  0.90203  Biso   1.000  Ir
  O1       1.0000 0.61554  0.25000  0.51352  Biso   1.000  O
  O2       1.0000 0.38447  0.75000  0.48648  Biso   1.000  O
  O3       1.0000 0.94973  0.25000  0.93608  Biso   1.000  O
  O4       1.0000 0.05027  0.75000  0.06392  Biso   1.000  O
  O5       1.0000 0.95244  0.25000  0.18552  Biso   1.000  O
  O6       1.0000 0.04756  0.75000  0.81448  Biso   1.000  O
  O7       1.0000 0.27407  0.25000  0.59609  Biso   1.000  O
  O8       1.0000 0.72593  0.75000  0.40391  Biso   1.000  O
  O9       1.0000 0.61892  0.25000  0.01786  Biso   1.000  O
  O10      1.0000 0.38107  0.75000  0.98214  Biso   1.000  O
  O11      1.0000 0.95617  0.25000  0.42836  Biso   1.000  O
  O12      1.0000 0.04383  0.75000  0.57164  Biso   1.000  O
  O13      1.0000 0.26744  0.25000  0.84942  Biso   1.000  O
  O14      1.0000 0.73256  0.75000  0.15058  Biso   1.000  O
  O15      1.0000 0.93781  0.25000  0.67700  Biso   1.000  O
  O16      1.0000 0.06219  0.75000  0.32300  Biso   1.000  O
