data_image0
_cell_length_a       21.7356
_cell_length_b       18.7635
_cell_length_c       11.5699
_cell_angle_alpha    90
_cell_angle_beta     105.418
_cell_angle_gamma    90

_symmetry_space_group_name_H-M    "P 1"
_symmetry_int_tables_number       1

loop_
  _symmetry_equiv_pos_as_xyz
  'x, y, z'

loop_
  _atom_site_label
  _atom_site_occupancy
  _atom_site_fract_x
  _atom_site_fract_y
  _atom_site_fract_z
  _atom_site_thermal_displace_type
  _atom_site_B_iso_or_equiv
  _atom_site_type_symbol
  Ir1      1.0000 0.19196  0.49627  0.62671  Biso   1.000  Ir
  Ir2      1.0000 0.80804  0.49627  0.87329  Biso   1.000  Ir
  Ir3      1.0000 0.80804  0.50373  0.37329  Biso   1.000  Ir
  Ir4      1.0000 0.19196  0.50373  0.12671  Biso   1.000  Ir
  Ir5      1.0000 0.93290  0.87154  0.87342  Biso   1.000  Ir
  Ir6      1.0000 0.06710  0.87154  0.62658  Biso   1.000  Ir
  Ir7      1.0000 0.06710  0.12846  0.12658  Biso   1.000  Ir
  Ir8      1.0000 0.93290  0.12846  0.37342  Biso   1.000  Ir
  Ir9      1.0000 0.80969  0.62164  0.12674  Biso   1.000  Ir
  Ir10     1.0000 0.19031  0.62164  0.37326  Biso   1.000  Ir
  Ir11     1.0000 0.19031  0.37837  0.87326  Biso   1.000  Ir
  Ir12     1.0000 0.80969  0.37837  0.62674  Biso   1.000  Ir
  Ir13     1.0000 0.81507  0.74631  0.37332  Biso   1.000  Ir
  Ir14     1.0000 0.18493  0.74631  0.12668  Biso   1.000  Ir
  Ir15     1.0000 0.18493  0.25368  0.62668  Biso   1.000  Ir
  Ir16     1.0000 0.81507  0.25368  0.87332  Biso   1.000  Ir
  Ir17     1.0000 0.69196  0.99627  0.62671  Biso   1.000  Ir
  Ir18     1.0000 0.30804  0.99627  0.87329  Biso   1.000  Ir
  Ir19     1.0000 0.30804  0.00373  0.37329  Biso   1.000  Ir
  Ir20     1.0000 0.69196  0.00373  0.12671  Biso   1.000  Ir
  Ir21     1.0000 0.43290  0.37154  0.87342  Biso   1.000  Ir
  Ir22     1.0000 0.56710  0.37154  0.62658  Biso   1.000  Ir
  Ir23     1.0000 0.56710  0.62846  0.12658  Biso   1.000  Ir
  Ir24     1.0000 0.43290  0.62846  0.37342  Biso   1.000  Ir
  Ir25     1.0000 0.30969  0.12163  0.12674  Biso   1.000  Ir
  Ir26     1.0000 0.69031  0.12163  0.37326  Biso   1.000  Ir
  Ir27     1.0000 0.69031  0.87836  0.87326  Biso   1.000  Ir
  Ir28     1.0000 0.30969  0.87836  0.62674  Biso   1.000  Ir
  Ir29     1.0000 0.31507  0.24632  0.37332  Biso   1.000  Ir
  Ir30     1.0000 0.68493  0.24632  0.12668  Biso   1.000  Ir
  Ir31     1.0000 0.68493  0.75369  0.62668  Biso   1.000  Ir
  Ir32     1.0000 0.31507  0.75369  0.87332  Biso   1.000  Ir
  O1       1.0000 0.12765  0.37761  0.00020  Biso   1.000  O
  O2       1.0000 0.87235  0.37761  0.49980  Biso   1.000  O
  O3       1.0000 0.87235  0.62239  0.99980  Biso   1.000  O
  O4       1.0000 0.12765  0.62239  0.50020  Biso   1.000  O
  O5       1.0000 0.12666  0.25468  0.25077  Biso   1.000  O
  O6       1.0000 0.87334  0.25468  0.24923  Biso   1.000  O
  O7       1.0000 0.87334  0.74532  0.74923  Biso   1.000  O
  O8       1.0000 0.12666  0.74532  0.75077  Biso   1.000  O
  O9       1.0000 0.87880  0.87500  0.00789  Biso   1.000  O
  O10      1.0000 0.12120  0.87500  0.49211  Biso   1.000  O
  O11      1.0000 0.12120  0.12500  0.99211  Biso   1.000  O
  O12      1.0000 0.87880  0.12500  0.50789  Biso   1.000  O
  O13      1.0000 0.87766  0.12761  0.99994  Biso   1.000  O
  O14      1.0000 0.12234  0.12761  0.50006  Biso   1.000  O
  O15      1.0000 0.12234  0.87239  0.00006  Biso   1.000  O
  O16      1.0000 0.87766  0.87239  0.49993  Biso   1.000  O
  O17      1.0000 0.38032  0.50143  0.25079  Biso   1.000  O
  O18      1.0000 0.61968  0.50143  0.24921  Biso   1.000  O
  O19      1.0000 0.61968  0.49857  0.74921  Biso   1.000  O
  O20      1.0000 0.38032  0.49857  0.75079  Biso   1.000  O
  O21      1.0000 0.12584  0.50457  0.74916  Biso   1.000  O
  O22      1.0000 0.87416  0.50457  0.75083  Biso   1.000  O
  O23      1.0000 0.87416  0.49543  0.25083  Biso   1.000  O
  O24      1.0000 0.12584  0.49543  0.24916  Biso   1.000  O
  O25      1.0000 0.12165  0.62503  0.99240  Biso   1.000  O
  O26      1.0000 0.87835  0.62503  0.50760  Biso   1.000  O
  O27      1.0000 0.87835  0.37497  0.00760  Biso   1.000  O
  O28      1.0000 0.12165  0.37497  0.49240  Biso   1.000  O
  O29      1.0000 0.87935  0.25126  0.74909  Biso   1.000  O
  O30      1.0000 0.12065  0.25126  0.75091  Biso   1.000  O
  O31      1.0000 0.12065  0.74874  0.25091  Biso   1.000  O
  O32      1.0000 0.87935  0.74874  0.24909  Biso   1.000  O
  O33      1.0000 0.62765  0.87761  0.00020  Biso   1.000  O
  O34      1.0000 0.37235  0.87761  0.49980  Biso   1.000  O
  O35      1.0000 0.37235  0.12239  0.99980  Biso   1.000  O
  O36      1.0000 0.62765  0.12239  0.50020  Biso   1.000  O
  O37      1.0000 0.62666  0.75468  0.25077  Biso   1.000  O
  O38      1.0000 0.37334  0.75468  0.24923  Biso   1.000  O
  O39      1.0000 0.37334  0.24532  0.74923  Biso   1.000  O
  O40      1.0000 0.62666  0.24532  0.75077  Biso   1.000  O
  O41      1.0000 0.37880  0.37500  0.00789  Biso   1.000  O
  O42      1.0000 0.62120  0.37500  0.49211  Biso   1.000  O
  O43      1.0000 0.62120  0.62500  0.99211  Biso   1.000  O
  O44      1.0000 0.37880  0.62500  0.50789  Biso   1.000  O
  O45      1.0000 0.37766  0.62761  0.99994  Biso   1.000  O
  O46      1.0000 0.62234  0.62761  0.50006  Biso   1.000  O
  O47      1.0000 0.62234  0.37239  0.00006  Biso   1.000  O
  O48      1.0000 0.37766  0.37239  0.49993  Biso   1.000  O
  O49      1.0000 0.88032  0.00143  0.25079  Biso   1.000  O
  O50      1.0000 0.11968  0.00143  0.24921  Biso   1.000  O
  O51      1.0000 0.11968  0.99857  0.74921  Biso   1.000  O
  O52      1.0000 0.88032  0.99857  0.75079  Biso   1.000  O
  O53      1.0000 0.62584  0.00457  0.74916  Biso   1.000  O
  O54      1.0000 0.37416  0.00457  0.75083  Biso   1.000  O
  O55      1.0000 0.37416  0.99543  0.25083  Biso   1.000  O
  O56      1.0000 0.62584  0.99543  0.24916  Biso   1.000  O
  O57      1.0000 0.62165  0.12503  0.99240  Biso   1.000  O
  O58      1.0000 0.37835  0.12503  0.50760  Biso   1.000  O
  O59      1.0000 0.37835  0.87497  0.00760  Biso   1.000  O
  O60      1.0000 0.62165  0.87497  0.49240  Biso   1.000  O
  O61      1.0000 0.37935  0.75126  0.74909  Biso   1.000  O
  O62      1.0000 0.62066  0.75126  0.75091  Biso   1.000  O
  O63      1.0000 0.62066  0.24874  0.25091  Biso   1.000  O
  O64      1.0000 0.37935  0.24874  0.24909  Biso   1.000  O
