data_image0
_cell_length_a       5.42088
_cell_length_b       9.55083
_cell_length_c       11.48
_cell_angle_alpha    90
_cell_angle_beta     90
_cell_angle_gamma    90

_symmetry_space_group_name_H-M    "P 1"
_symmetry_int_tables_number       1

loop_
  _symmetry_equiv_pos_as_xyz
  'x, y, z'

loop_
  _atom_site_label
  _atom_site_occupancy
  _atom_site_fract_x
  _atom_site_fract_y
  _atom_site_fract_z
  _atom_site_thermal_displace_type
  _atom_site_B_iso_or_equiv
  _atom_site_type_symbol
  O1       1.0000 0.00000  0.00000  0.13354  Biso   1.000  O
  O2       1.0000 0.00000  0.00000  0.86646  Biso   1.000  O
  O3       1.0000 0.50000  0.50000  0.36646  Biso   1.000  O
  O4       1.0000 0.50000  0.50000  0.63354  Biso   1.000  O
  O5       1.0000 0.50000  0.15534  0.00000  Biso   1.000  O
  O6       1.0000 0.50000  0.84466  0.00000  Biso   1.000  O
  O7       1.0000 0.00000  0.34466  0.50000  Biso   1.000  O
  O8       1.0000 0.00000  0.65534  0.50000  Biso   1.000  O
  O9       1.0000 0.00000  0.29923  0.00000  Biso   1.000  O
  O10      1.0000 0.00000  0.70077  0.00000  Biso   1.000  O
  O11      1.0000 0.50000  0.20077  0.50000  Biso   1.000  O
  O12      1.0000 0.50000  0.79923  0.50000  Biso   1.000  O
  O13      1.0000 0.25000  0.25000  0.25000  Biso   1.000  O
  O14      1.0000 0.75000  0.75000  0.25000  Biso   1.000  O
  O15      1.0000 0.75000  0.25000  0.75000  Biso   1.000  O
  O16      1.0000 0.25000  0.75000  0.75000  Biso   1.000  O
  Ir1      1.0000 0.20089  0.17237  0.09697  Biso   1.000  Ir
  Ir2      1.0000 0.79911  0.82763  0.09697  Biso   1.000  Ir
  Ir3      1.0000 0.79911  0.17237  0.90303  Biso   1.000  Ir
  Ir4      1.0000 0.20089  0.82763  0.90303  Biso   1.000  Ir
  Ir5      1.0000 0.29911  0.32762  0.40303  Biso   1.000  Ir
  Ir6      1.0000 0.70089  0.67237  0.40303  Biso   1.000  Ir
  Ir7      1.0000 0.70089  0.32762  0.59697  Biso   1.000  Ir
  Ir8      1.0000 0.29911  0.67237  0.59697  Biso   1.000  Ir
