data_image0
_cell_length_a       15.3595
_cell_length_b       25.8624
_cell_length_c       16.5106
_cell_angle_alpha    90
_cell_angle_beta     90
_cell_angle_gamma    90

_symmetry_space_group_name_H-M    "P 1"
_symmetry_int_tables_number       1

loop_
  _symmetry_equiv_pos_as_xyz
  'x, y, z'

loop_
  _atom_site_label
  _atom_site_occupancy
  _atom_site_fract_x
  _atom_site_fract_y
  _atom_site_fract_z
  _atom_site_thermal_displace_type
  _atom_site_B_iso_or_equiv
  _atom_site_type_symbol
  O1       1.0000 0.50000  0.08941  0.87033  Biso   1.000  O
  O2       1.0000 0.50000  0.91058  0.87033  Biso   1.000  O
  O3       1.0000 0.81797  0.71384  0.64084  Biso   1.000  O
  O4       1.0000 0.18204  0.28616  0.64084  Biso   1.000  O
  O5       1.0000 0.81797  0.28616  0.64084  Biso   1.000  O
  O6       1.0000 0.18204  0.71384  0.64084  Biso   1.000  O
  O7       1.0000 0.00000  0.00000  0.12525  Biso   1.000  O
  O8       1.0000 0.18220  0.83272  0.32286  Biso   1.000  O
  O9       1.0000 0.81780  0.16728  0.32286  Biso   1.000  O
  O10      1.0000 0.18220  0.16728  0.32286  Biso   1.000  O
  O11      1.0000 0.81780  0.83272  0.32286  Biso   1.000  O
  O12      1.0000 0.30933  0.12018  0.18794  Biso   1.000  O
  O13      1.0000 0.69067  0.87982  0.18794  Biso   1.000  O
  O14      1.0000 0.30933  0.87982  0.18794  Biso   1.000  O
  O15      1.0000 0.69067  0.12018  0.18794  Biso   1.000  O
  O16      1.0000 0.30727  0.11964  0.82220  Biso   1.000  O
  O17      1.0000 0.69273  0.88036  0.82220  Biso   1.000  O
  O18      1.0000 0.30727  0.88036  0.82220  Biso   1.000  O
  O19      1.0000 0.69273  0.11964  0.82220  Biso   1.000  O
  O20      1.0000 0.17811  0.28717  0.37280  Biso   1.000  O
  O21      1.0000 0.82189  0.71283  0.37280  Biso   1.000  O
  O22      1.0000 0.17811  0.71283  0.37280  Biso   1.000  O
  O23      1.0000 0.82189  0.28717  0.37280  Biso   1.000  O
  O24      1.0000 0.10430  0.90130  0.83998  Biso   1.000  O
  O25      1.0000 0.89570  0.09870  0.83998  Biso   1.000  O
  O26      1.0000 0.10430  0.09870  0.83998  Biso   1.000  O
  O27      1.0000 0.89570  0.90130  0.83998  Biso   1.000  O
  O28      1.0000 0.50000  0.08452  0.13961  Biso   1.000  O
  O29      1.0000 0.50000  0.91548  0.13961  Biso   1.000  O
  O30      1.0000 0.00000  0.22554  0.63792  Biso   1.000  O
  O31      1.0000 0.00000  0.77446  0.63792  Biso   1.000  O
  O32      1.0000 0.17573  0.83409  0.69084  Biso   1.000  O
  O33      1.0000 0.82427  0.16590  0.69084  Biso   1.000  O
  O34      1.0000 0.17573  0.16590  0.69084  Biso   1.000  O
  O35      1.0000 0.82427  0.83409  0.69084  Biso   1.000  O
  O36      1.0000 0.10456  0.89987  0.17746  Biso   1.000  O
  O37      1.0000 0.89544  0.10013  0.17746  Biso   1.000  O
  O38      1.0000 0.10456  0.10013  0.17746  Biso   1.000  O
  O39      1.0000 0.89544  0.89987  0.17746  Biso   1.000  O
  O40      1.0000 0.65441  0.00000  0.14919  Biso   1.000  O
  O41      1.0000 0.34559  0.00000  0.14919  Biso   1.000  O
  O42      1.0000 0.34735  0.41605  0.50486  Biso   1.000  O
  O43      1.0000 0.65265  0.58395  0.50486  Biso   1.000  O
  O44      1.0000 0.34735  0.58395  0.50486  Biso   1.000  O
  O45      1.0000 0.65265  0.41605  0.50486  Biso   1.000  O
  O46      1.0000 0.14946  0.80151  0.50651  Biso   1.000  O
  O47      1.0000 0.85053  0.19849  0.50651  Biso   1.000  O
  O48      1.0000 0.14946  0.19849  0.50651  Biso   1.000  O
  O49      1.0000 0.85053  0.80151  0.50651  Biso   1.000  O
  O50      1.0000 0.00000  0.77860  0.37285  Biso   1.000  O
  O51      1.0000 0.00000  0.22139  0.37285  Biso   1.000  O
  O52      1.0000 0.64649  0.00000  0.86020  Biso   1.000  O
  O53      1.0000 0.35351  0.00000  0.86020  Biso   1.000  O
  O54      1.0000 0.00000  0.00000  0.89683  Biso   1.000  O
  O55      1.0000 0.00000  0.60066  0.50934  Biso   1.000  O
  O56      1.0000 0.00000  0.39934  0.50934  Biso   1.000  O
  O57      1.0000 0.50000  0.58941  0.37033  Biso   1.000  O
  O58      1.0000 0.50000  0.41058  0.37033  Biso   1.000  O
  O59      1.0000 0.81797  0.21384  0.14085  Biso   1.000  O
  O60      1.0000 0.18204  0.78616  0.14085  Biso   1.000  O
  O61      1.0000 0.81797  0.78616  0.14085  Biso   1.000  O
  O62      1.0000 0.18204  0.21384  0.14085  Biso   1.000  O
  O63      1.0000 0.00000  0.50000  0.62525  Biso   1.000  O
  O64      1.0000 0.18220  0.33272  0.82286  Biso   1.000  O
  O65      1.0000 0.81780  0.66728  0.82286  Biso   1.000  O
  O66      1.0000 0.18220  0.66728  0.82286  Biso   1.000  O
  O67      1.0000 0.81780  0.33272  0.82286  Biso   1.000  O
  O68      1.0000 0.30933  0.62018  0.68794  Biso   1.000  O
  O69      1.0000 0.69067  0.37982  0.68794  Biso   1.000  O
  O70      1.0000 0.30933  0.37982  0.68794  Biso   1.000  O
  O71      1.0000 0.69067  0.62018  0.68794  Biso   1.000  O
  O72      1.0000 0.30727  0.61964  0.32220  Biso   1.000  O
  O73      1.0000 0.69273  0.38036  0.32220  Biso   1.000  O
  O74      1.0000 0.30727  0.38036  0.32220  Biso   1.000  O
  O75      1.0000 0.69273  0.61964  0.32220  Biso   1.000  O
  O76      1.0000 0.17811  0.78717  0.87280  Biso   1.000  O
  O77      1.0000 0.82189  0.21283  0.87280  Biso   1.000  O
  O78      1.0000 0.17811  0.21283  0.87280  Biso   1.000  O
  O79      1.0000 0.82189  0.78717  0.87280  Biso   1.000  O
  O80      1.0000 0.10430  0.40130  0.33998  Biso   1.000  O
  O81      1.0000 0.89570  0.59870  0.33998  Biso   1.000  O
  O82      1.0000 0.10430  0.59870  0.33998  Biso   1.000  O
  O83      1.0000 0.89570  0.40130  0.33998  Biso   1.000  O
  O84      1.0000 0.50000  0.58452  0.63961  Biso   1.000  O
  O85      1.0000 0.50000  0.41548  0.63961  Biso   1.000  O
  O86      1.0000 0.00000  0.72554  0.13792  Biso   1.000  O
  O87      1.0000 0.00000  0.27446  0.13792  Biso   1.000  O
  O88      1.0000 0.17573  0.33409  0.19084  Biso   1.000  O
  O89      1.0000 0.82427  0.66590  0.19084  Biso   1.000  O
  O90      1.0000 0.17573  0.66590  0.19084  Biso   1.000  O
  O91      1.0000 0.82427  0.33409  0.19084  Biso   1.000  O
  O92      1.0000 0.10456  0.39987  0.67746  Biso   1.000  O
  O93      1.0000 0.89544  0.60013  0.67746  Biso   1.000  O
  O94      1.0000 0.10456  0.60013  0.67746  Biso   1.000  O
  O95      1.0000 0.89544  0.39987  0.67746  Biso   1.000  O
  O96      1.0000 0.65441  0.50000  0.64919  Biso   1.000  O
  O97      1.0000 0.34559  0.50000  0.64919  Biso   1.000  O
  O98      1.0000 0.34735  0.91605  0.00486  Biso   1.000  O
  O99      1.0000 0.65265  0.08395  0.00486  Biso   1.000  O
  O100     1.0000 0.34735  0.08395  0.00486  Biso   1.000  O
  O101     1.0000 0.65265  0.91605  0.00486  Biso   1.000  O
  O102     1.0000 0.14946  0.30150  0.00651  Biso   1.000  O
  O103     1.0000 0.85053  0.69849  0.00651  Biso   1.000  O
  O104     1.0000 0.14946  0.69849  0.00651  Biso   1.000  O
  O105     1.0000 0.85053  0.30150  0.00651  Biso   1.000  O
  O106     1.0000 0.00000  0.27860  0.87285  Biso   1.000  O
  O107     1.0000 0.00000  0.72140  0.87285  Biso   1.000  O
  O108     1.0000 0.64649  0.50000  0.36020  Biso   1.000  O
  O109     1.0000 0.35351  0.50000  0.36020  Biso   1.000  O
  O110     1.0000 0.00000  0.50000  0.39683  Biso   1.000  O
  O111     1.0000 0.00000  0.10066  0.00934  Biso   1.000  O
  O112     1.0000 0.00000  0.89934  0.00934  Biso   1.000  O
  Ir1      1.0000 0.37559  0.07199  0.12012  Biso   1.000  Ir
  Ir2      1.0000 0.62441  0.92801  0.12012  Biso   1.000  Ir
  Ir3      1.0000 0.37559  0.92801  0.12012  Biso   1.000  Ir
  Ir4      1.0000 0.62441  0.07199  0.12012  Biso   1.000  Ir
  Ir5      1.0000 0.00000  0.07534  0.12220  Biso   1.000  Ir
  Ir6      1.0000 0.00000  0.92466  0.12220  Biso   1.000  Ir
  Ir7      1.0000 0.12639  0.21904  0.61901  Biso   1.000  Ir
  Ir8      1.0000 0.87361  0.78096  0.61901  Biso   1.000  Ir
  Ir9      1.0000 0.12639  0.78096  0.61901  Biso   1.000  Ir
  Ir10     1.0000 0.87361  0.21904  0.61901  Biso   1.000  Ir
  Ir11     1.0000 0.62317  0.92718  0.88963  Biso   1.000  Ir
  Ir12     1.0000 0.37683  0.07282  0.88963  Biso   1.000  Ir
  Ir13     1.0000 0.62317  0.07282  0.88963  Biso   1.000  Ir
  Ir14     1.0000 0.37683  0.92718  0.88963  Biso   1.000  Ir
  Ir15     1.0000 0.19117  0.85014  0.80668  Biso   1.000  Ir
  Ir16     1.0000 0.80883  0.14986  0.80668  Biso   1.000  Ir
  Ir17     1.0000 0.19117  0.14986  0.80668  Biso   1.000  Ir
  Ir18     1.0000 0.80883  0.85014  0.80668  Biso   1.000  Ir
  Ir19     1.0000 0.12667  0.78128  0.39380  Biso   1.000  Ir
  Ir20     1.0000 0.87333  0.21872  0.39380  Biso   1.000  Ir
  Ir21     1.0000 0.12667  0.21872  0.39380  Biso   1.000  Ir
  Ir22     1.0000 0.87333  0.78128  0.39380  Biso   1.000  Ir
  Ir23     1.0000 0.19408  0.84926  0.20685  Biso   1.000  Ir
  Ir24     1.0000 0.80592  0.15074  0.20685  Biso   1.000  Ir
  Ir25     1.0000 0.19408  0.15074  0.20685  Biso   1.000  Ir
  Ir26     1.0000 0.80592  0.84926  0.20685  Biso   1.000  Ir
  Ir27     1.0000 0.00000  0.92492  0.89673  Biso   1.000  Ir
  Ir28     1.0000 0.00000  0.07508  0.89673  Biso   1.000  Ir
  Ir29     1.0000 0.37559  0.57199  0.62012  Biso   1.000  Ir
  Ir30     1.0000 0.62441  0.42801  0.62012  Biso   1.000  Ir
  Ir31     1.0000 0.37559  0.42801  0.62012  Biso   1.000  Ir
  Ir32     1.0000 0.62441  0.57199  0.62012  Biso   1.000  Ir
  Ir33     1.0000 0.00000  0.57534  0.62220  Biso   1.000  Ir
  Ir34     1.0000 0.00000  0.42466  0.62220  Biso   1.000  Ir
  Ir35     1.0000 0.12639  0.71904  0.11901  Biso   1.000  Ir
  Ir36     1.0000 0.87361  0.28096  0.11901  Biso   1.000  Ir
  Ir37     1.0000 0.12639  0.28096  0.11901  Biso   1.000  Ir
  Ir38     1.0000 0.87361  0.71904  0.11901  Biso   1.000  Ir
  Ir39     1.0000 0.62317  0.42718  0.38963  Biso   1.000  Ir
  Ir40     1.0000 0.37683  0.57282  0.38963  Biso   1.000  Ir
  Ir41     1.0000 0.62317  0.57282  0.38963  Biso   1.000  Ir
  Ir42     1.0000 0.37683  0.42718  0.38963  Biso   1.000  Ir
  Ir43     1.0000 0.19117  0.35014  0.30668  Biso   1.000  Ir
  Ir44     1.0000 0.80883  0.64986  0.30668  Biso   1.000  Ir
  Ir45     1.0000 0.19117  0.64986  0.30668  Biso   1.000  Ir
  Ir46     1.0000 0.80883  0.35014  0.30668  Biso   1.000  Ir
  Ir47     1.0000 0.12667  0.28128  0.89380  Biso   1.000  Ir
  Ir48     1.0000 0.87333  0.71872  0.89380  Biso   1.000  Ir
  Ir49     1.0000 0.12667  0.71872  0.89380  Biso   1.000  Ir
  Ir50     1.0000 0.87333  0.28128  0.89380  Biso   1.000  Ir
  Ir51     1.0000 0.19408  0.34926  0.70685  Biso   1.000  Ir
  Ir52     1.0000 0.80592  0.65074  0.70685  Biso   1.000  Ir
  Ir53     1.0000 0.19408  0.65074  0.70685  Biso   1.000  Ir
  Ir54     1.0000 0.80592  0.34926  0.70685  Biso   1.000  Ir
  Ir55     1.0000 0.00000  0.42492  0.39673  Biso   1.000  Ir
  Ir56     1.0000 0.00000  0.57508  0.39673  Biso   1.000  Ir
