data_image0
_cell_length_a       23.3489
_cell_length_b       28.4847
_cell_length_c       10.4164
_cell_angle_alpha    90
_cell_angle_beta     90
_cell_angle_gamma    90

_symmetry_space_group_name_H-M    "P 1"
_symmetry_int_tables_number       1

loop_
  _symmetry_equiv_pos_as_xyz
  'x, y, z'

loop_
  _atom_site_label
  _atom_site_occupancy
  _atom_site_fract_x
  _atom_site_fract_y
  _atom_site_fract_z
  _atom_site_thermal_displace_type
  _atom_site_B_iso_or_equiv
  _atom_site_type_symbol
  O1       1.0000 0.82339  0.78756  0.48855  Biso   1.000  O
  O2       1.0000 0.17661  0.21244  0.98855  Biso   1.000  O
  O3       1.0000 0.17661  0.78756  0.01145  Biso   1.000  O
  O4       1.0000 0.82339  0.21244  0.51145  Biso   1.000  O
  O5       1.0000 0.17661  0.21244  0.51145  Biso   1.000  O
  O6       1.0000 0.82339  0.78756  0.01145  Biso   1.000  O
  O7       1.0000 0.82339  0.21244  0.98855  Biso   1.000  O
  O8       1.0000 0.17661  0.78756  0.48855  Biso   1.000  O
  O9       1.0000 0.19343  0.67495  0.47795  Biso   1.000  O
  O10      1.0000 0.80657  0.32505  0.97795  Biso   1.000  O
  O11      1.0000 0.80657  0.67495  0.02205  Biso   1.000  O
  O12      1.0000 0.19343  0.32505  0.52205  Biso   1.000  O
  O13      1.0000 0.80657  0.32505  0.52205  Biso   1.000  O
  O14      1.0000 0.19343  0.67495  0.02205  Biso   1.000  O
  O15      1.0000 0.19343  0.32505  0.97795  Biso   1.000  O
  O16      1.0000 0.80657  0.67495  0.47795  Biso   1.000  O
  O17      1.0000 0.06778  0.91022  0.51473  Biso   1.000  O
  O18      1.0000 0.93222  0.08978  0.01473  Biso   1.000  O
  O19      1.0000 0.93222  0.91022  0.98527  Biso   1.000  O
  O20      1.0000 0.06778  0.08978  0.48527  Biso   1.000  O
  O21      1.0000 0.93222  0.08978  0.48527  Biso   1.000  O
  O22      1.0000 0.06778  0.91022  0.98527  Biso   1.000  O
  O23      1.0000 0.06778  0.08978  0.01473  Biso   1.000  O
  O24      1.0000 0.93222  0.91022  0.51473  Biso   1.000  O
  O25      1.0000 0.70438  0.60186  0.51409  Biso   1.000  O
  O26      1.0000 0.29562  0.39814  0.01409  Biso   1.000  O
  O27      1.0000 0.29562  0.60186  0.98591  Biso   1.000  O
  O28      1.0000 0.70438  0.39814  0.48591  Biso   1.000  O
  O29      1.0000 0.29562  0.39814  0.48591  Biso   1.000  O
  O30      1.0000 0.70438  0.60186  0.98591  Biso   1.000  O
  O31      1.0000 0.70438  0.39814  0.01409  Biso   1.000  O
  O32      1.0000 0.29562  0.60186  0.51409  Biso   1.000  O
  O33      1.0000 0.00000  0.10504  0.75000  Biso   1.000  O
  O34      1.0000 0.00000  0.89496  0.25000  Biso   1.000  O
  O35      1.0000 0.93120  0.28099  0.02708  Biso   1.000  O
  O36      1.0000 0.06880  0.71901  0.52708  Biso   1.000  O
  O37      1.0000 0.06880  0.28099  0.47292  Biso   1.000  O
  O38      1.0000 0.93120  0.71901  0.97292  Biso   1.000  O
  O39      1.0000 0.06880  0.71901  0.97292  Biso   1.000  O
  O40      1.0000 0.93120  0.28099  0.47292  Biso   1.000  O
  O41      1.0000 0.93120  0.71901  0.52708  Biso   1.000  O
  O42      1.0000 0.06880  0.28099  0.02708  Biso   1.000  O
  O43      1.0000 0.00000  0.81386  0.03788  Biso   1.000  O
  O44      1.0000 0.00000  0.18614  0.53788  Biso   1.000  O
  O45      1.0000 0.00000  0.81386  0.46212  Biso   1.000  O
  O46      1.0000 0.00000  0.18614  0.96212  Biso   1.000  O
  O47      1.0000 0.34979  0.50000  0.00000  Biso   1.000  O
  O48      1.0000 0.65021  0.50000  0.50000  Biso   1.000  O
  O49      1.0000 0.65021  0.50000  0.00000  Biso   1.000  O
  O50      1.0000 0.34979  0.50000  0.50000  Biso   1.000  O
  O51      1.0000 0.00000  0.77338  0.75000  Biso   1.000  O
  O52      1.0000 0.00000  0.22662  0.25000  Biso   1.000  O
  O53      1.0000 0.74436  0.66677  0.75000  Biso   1.000  O
  O54      1.0000 0.25565  0.33323  0.25000  Biso   1.000  O
  O55      1.0000 0.25565  0.66677  0.75000  Biso   1.000  O
  O56      1.0000 0.74436  0.33323  0.25000  Biso   1.000  O
  O57      1.0000 0.87326  0.27240  0.75000  Biso   1.000  O
  O58      1.0000 0.12674  0.72760  0.25000  Biso   1.000  O
  O59      1.0000 0.12674  0.27240  0.75000  Biso   1.000  O
  O60      1.0000 0.87326  0.72760  0.25000  Biso   1.000  O
  O61      1.0000 0.34958  0.43472  0.75000  Biso   1.000  O
  O62      1.0000 0.65042  0.56528  0.25000  Biso   1.000  O
  O63      1.0000 0.65042  0.43472  0.75000  Biso   1.000  O
  O64      1.0000 0.34958  0.56528  0.25000  Biso   1.000  O
  O65      1.0000 0.32339  0.28756  0.48855  Biso   1.000  O
  O66      1.0000 0.67661  0.71244  0.98855  Biso   1.000  O
  O67      1.0000 0.67661  0.28756  0.01145  Biso   1.000  O
  O68      1.0000 0.32339  0.71244  0.51145  Biso   1.000  O
  O69      1.0000 0.67661  0.71244  0.51145  Biso   1.000  O
  O70      1.0000 0.32339  0.28756  0.01145  Biso   1.000  O
  O71      1.0000 0.32339  0.71244  0.98855  Biso   1.000  O
  O72      1.0000 0.67661  0.28756  0.48855  Biso   1.000  O
  O73      1.0000 0.69343  0.17495  0.47795  Biso   1.000  O
  O74      1.0000 0.30657  0.82505  0.97795  Biso   1.000  O
  O75      1.0000 0.30657  0.17495  0.02205  Biso   1.000  O
  O76      1.0000 0.69343  0.82505  0.52205  Biso   1.000  O
  O77      1.0000 0.30657  0.82505  0.52205  Biso   1.000  O
  O78      1.0000 0.69343  0.17495  0.02205  Biso   1.000  O
  O79      1.0000 0.69343  0.82505  0.97795  Biso   1.000  O
  O80      1.0000 0.30657  0.17495  0.47795  Biso   1.000  O
  O81      1.0000 0.56778  0.41022  0.51473  Biso   1.000  O
  O82      1.0000 0.43222  0.58978  0.01473  Biso   1.000  O
  O83      1.0000 0.43222  0.41022  0.98527  Biso   1.000  O
  O84      1.0000 0.56778  0.58978  0.48527  Biso   1.000  O
  O85      1.0000 0.43222  0.58978  0.48527  Biso   1.000  O
  O86      1.0000 0.56778  0.41022  0.98527  Biso   1.000  O
  O87      1.0000 0.56778  0.58978  0.01473  Biso   1.000  O
  O88      1.0000 0.43222  0.41022  0.51473  Biso   1.000  O
  O89      1.0000 0.20438  0.10186  0.51409  Biso   1.000  O
  O90      1.0000 0.79562  0.89814  0.01409  Biso   1.000  O
  O91      1.0000 0.79562  0.10186  0.98591  Biso   1.000  O
  O92      1.0000 0.20438  0.89814  0.48591  Biso   1.000  O
  O93      1.0000 0.79562  0.89814  0.48591  Biso   1.000  O
  O94      1.0000 0.20438  0.10186  0.98591  Biso   1.000  O
  O95      1.0000 0.20438  0.89814  0.01409  Biso   1.000  O
  O96      1.0000 0.79562  0.10186  0.51409  Biso   1.000  O
  O97      1.0000 0.50000  0.60504  0.75000  Biso   1.000  O
  O98      1.0000 0.50000  0.39496  0.25000  Biso   1.000  O
  O99      1.0000 0.43120  0.78099  0.02708  Biso   1.000  O
  O100     1.0000 0.56880  0.21901  0.52708  Biso   1.000  O
  O101     1.0000 0.56880  0.78099  0.47292  Biso   1.000  O
  O102     1.0000 0.43120  0.21901  0.97292  Biso   1.000  O
  O103     1.0000 0.56880  0.21901  0.97292  Biso   1.000  O
  O104     1.0000 0.43120  0.78099  0.47292  Biso   1.000  O
  O105     1.0000 0.43120  0.21901  0.52708  Biso   1.000  O
  O106     1.0000 0.56880  0.78099  0.02708  Biso   1.000  O
  O107     1.0000 0.50000  0.31386  0.03788  Biso   1.000  O
  O108     1.0000 0.50000  0.68614  0.53788  Biso   1.000  O
  O109     1.0000 0.50000  0.31386  0.46212  Biso   1.000  O
  O110     1.0000 0.50000  0.68614  0.96212  Biso   1.000  O
  O111     1.0000 0.84979  0.00000  0.00000  Biso   1.000  O
  O112     1.0000 0.15021  0.00000  0.50000  Biso   1.000  O
  O113     1.0000 0.15021  0.00000  0.00000  Biso   1.000  O
  O114     1.0000 0.84979  0.00000  0.50000  Biso   1.000  O
  O115     1.0000 0.50000  0.27338  0.75000  Biso   1.000  O
  O116     1.0000 0.50000  0.72662  0.25000  Biso   1.000  O
  O117     1.0000 0.24436  0.16677  0.75000  Biso   1.000  O
  O118     1.0000 0.75565  0.83323  0.25000  Biso   1.000  O
  O119     1.0000 0.75565  0.16677  0.75000  Biso   1.000  O
  O120     1.0000 0.24436  0.83323  0.25000  Biso   1.000  O
  O121     1.0000 0.37326  0.77240  0.75000  Biso   1.000  O
  O122     1.0000 0.62674  0.22760  0.25000  Biso   1.000  O
  O123     1.0000 0.62674  0.77240  0.75000  Biso   1.000  O
  O124     1.0000 0.37326  0.22760  0.25000  Biso   1.000  O
  O125     1.0000 0.84958  0.93472  0.75000  Biso   1.000  O
  O126     1.0000 0.15042  0.06528  0.25000  Biso   1.000  O
  O127     1.0000 0.15042  0.93472  0.75000  Biso   1.000  O
  O128     1.0000 0.84958  0.06528  0.25000  Biso   1.000  O
  Ir1      1.0000 0.00000  0.24365  0.06716  Biso   1.000  Ir
  Ir2      1.0000 0.00000  0.75635  0.56716  Biso   1.000  Ir
  Ir3      1.0000 0.00000  0.24365  0.43284  Biso   1.000  Ir
  Ir4      1.0000 0.00000  0.75635  0.93284  Biso   1.000  Ir
  Ir5      1.0000 0.00000  0.88217  0.43552  Biso   1.000  Ir
  Ir6      1.0000 0.00000  0.11783  0.93552  Biso   1.000  Ir
  Ir7      1.0000 0.00000  0.88217  0.06448  Biso   1.000  Ir
  Ir8      1.0000 0.00000  0.11783  0.56448  Biso   1.000  Ir
  Ir9      1.0000 0.85830  0.27278  0.93515  Biso   1.000  Ir
  Ir10     1.0000 0.14170  0.72722  0.43515  Biso   1.000  Ir
  Ir11     1.0000 0.14170  0.27278  0.56485  Biso   1.000  Ir
  Ir12     1.0000 0.85830  0.72722  0.06485  Biso   1.000  Ir
  Ir13     1.0000 0.14170  0.72722  0.06485  Biso   1.000  Ir
  Ir14     1.0000 0.85830  0.27278  0.56485  Biso   1.000  Ir
  Ir15     1.0000 0.85830  0.72722  0.43515  Biso   1.000  Ir
  Ir16     1.0000 0.14170  0.27278  0.93515  Biso   1.000  Ir
  Ir17     1.0000 0.35729  0.56425  0.06309  Biso   1.000  Ir
  Ir18     1.0000 0.64271  0.43575  0.56309  Biso   1.000  Ir
  Ir19     1.0000 0.64271  0.56425  0.43691  Biso   1.000  Ir
  Ir20     1.0000 0.35729  0.43575  0.93691  Biso   1.000  Ir
  Ir21     1.0000 0.64271  0.43575  0.93691  Biso   1.000  Ir
  Ir22     1.0000 0.35729  0.56425  0.43691  Biso   1.000  Ir
  Ir23     1.0000 0.35729  0.43575  0.56309  Biso   1.000  Ir
  Ir24     1.0000 0.64271  0.56425  0.06309  Biso   1.000  Ir
  Ir25     1.0000 0.26733  0.33608  0.43614  Biso   1.000  Ir
  Ir26     1.0000 0.73267  0.66392  0.93614  Biso   1.000  Ir
  Ir27     1.0000 0.73267  0.33608  0.06386  Biso   1.000  Ir
  Ir28     1.0000 0.26733  0.66392  0.56386  Biso   1.000  Ir
  Ir29     1.0000 0.73267  0.66392  0.56386  Biso   1.000  Ir
  Ir30     1.0000 0.26733  0.33608  0.06386  Biso   1.000  Ir
  Ir31     1.0000 0.26733  0.66392  0.93614  Biso   1.000  Ir
  Ir32     1.0000 0.73267  0.33608  0.43614  Biso   1.000  Ir
  Ir33     1.0000 0.50000  0.74365  0.06716  Biso   1.000  Ir
  Ir34     1.0000 0.50000  0.25635  0.56716  Biso   1.000  Ir
  Ir35     1.0000 0.50000  0.74365  0.43284  Biso   1.000  Ir
  Ir36     1.0000 0.50000  0.25635  0.93284  Biso   1.000  Ir
  Ir37     1.0000 0.50000  0.38217  0.43552  Biso   1.000  Ir
  Ir38     1.0000 0.50000  0.61783  0.93552  Biso   1.000  Ir
  Ir39     1.0000 0.50000  0.38217  0.06448  Biso   1.000  Ir
  Ir40     1.0000 0.50000  0.61783  0.56448  Biso   1.000  Ir
  Ir41     1.0000 0.35830  0.77278  0.93515  Biso   1.000  Ir
  Ir42     1.0000 0.64170  0.22722  0.43515  Biso   1.000  Ir
  Ir43     1.0000 0.64170  0.77278  0.56485  Biso   1.000  Ir
  Ir44     1.0000 0.35830  0.22722  0.06485  Biso   1.000  Ir
  Ir45     1.0000 0.64170  0.22722  0.06485  Biso   1.000  Ir
  Ir46     1.0000 0.35830  0.77278  0.56485  Biso   1.000  Ir
  Ir47     1.0000 0.35830  0.22722  0.43515  Biso   1.000  Ir
  Ir48     1.0000 0.64170  0.77278  0.93515  Biso   1.000  Ir
  Ir49     1.0000 0.85729  0.06425  0.06309  Biso   1.000  Ir
  Ir50     1.0000 0.14271  0.93575  0.56309  Biso   1.000  Ir
  Ir51     1.0000 0.14271  0.06425  0.43691  Biso   1.000  Ir
  Ir52     1.0000 0.85729  0.93575  0.93691  Biso   1.000  Ir
  Ir53     1.0000 0.14271  0.93575  0.93691  Biso   1.000  Ir
  Ir54     1.0000 0.85729  0.06425  0.43691  Biso   1.000  Ir
  Ir55     1.0000 0.85729  0.93575  0.56309  Biso   1.000  Ir
  Ir56     1.0000 0.14271  0.06425  0.06309  Biso   1.000  Ir
  Ir57     1.0000 0.76733  0.83608  0.43614  Biso   1.000  Ir
  Ir58     1.0000 0.23267  0.16392  0.93614  Biso   1.000  Ir
  Ir59     1.0000 0.23267  0.83608  0.06386  Biso   1.000  Ir
  Ir60     1.0000 0.76733  0.16392  0.56386  Biso   1.000  Ir
  Ir61     1.0000 0.23267  0.16392  0.56386  Biso   1.000  Ir
  Ir62     1.0000 0.76733  0.83608  0.06386  Biso   1.000  Ir
  Ir63     1.0000 0.76733  0.16392  0.93614  Biso   1.000  Ir
  Ir64     1.0000 0.23267  0.83608  0.43614  Biso   1.000  Ir
