data_image0
_cell_length_a       5.41558
_cell_length_b       5.41558
_cell_length_c       44.5307
_cell_angle_alpha    90
_cell_angle_beta     90
_cell_angle_gamma    120

_symmetry_space_group_name_H-M    "P 1"
_symmetry_int_tables_number       1

loop_
  _symmetry_equiv_pos_as_xyz
  'x, y, z'

loop_
  _atom_site_label
  _atom_site_occupancy
  _atom_site_fract_x
  _atom_site_fract_y
  _atom_site_fract_z
  _atom_site_thermal_displace_type
  _atom_site_B_iso_or_equiv
  _atom_site_type_symbol
  Ir1      1.0000 0.33333  0.66667  0.54162  Biso   1.000  Ir
  Ir2      1.0000 0.66667  0.33333  0.70831  Biso   1.000  Ir
  Ir3      1.0000 0.33333  0.66667  0.87500  Biso   1.000  Ir
  Ir4      1.0000 0.00000  0.00000  0.04170  Biso   1.000  Ir
  Ir5      1.0000 0.00000  0.00000  0.37500  Biso   1.000  Ir
  Ir6      1.0000 0.33333  0.66667  0.20837  Biso   1.000  Ir
  O1       1.0000 0.66667  0.33333  0.08046  Biso   1.000  O
  O2       1.0000 0.00000  0.00000  0.83622  Biso   1.000  O
  O3       1.0000 0.33333  0.66667  0.33626  Biso   1.000  O
  O4       1.0000 0.66667  0.33333  0.91378  Biso   1.000  O
  O5       1.0000 0.66667  0.33333  0.58040  Biso   1.000  O
  O6       1.0000 0.33333  0.66667  0.00293  Biso   1.000  O
  O7       1.0000 0.00000  0.00000  0.66954  Biso   1.000  O
  O8       1.0000 0.00000  0.00000  0.50285  Biso   1.000  O
  O9       1.0000 0.66667  0.33333  0.41377  Biso   1.000  O
  O10      1.0000 0.66667  0.33333  0.24714  Biso   1.000  O
  O11      1.0000 0.33333  0.66667  0.74707  Biso   1.000  O
  O12      1.0000 0.00000  0.00000  0.16959  Biso   1.000  O
