data_image0
_cell_length_a       23.8887
_cell_length_b       23.8887
_cell_length_c       14.3284
_cell_angle_alpha    90
_cell_angle_beta     90
_cell_angle_gamma    120

_symmetry_space_group_name_H-M    "P 1"
_symmetry_int_tables_number       1

loop_
  _symmetry_equiv_pos_as_xyz
  'x, y, z'

loop_
  _atom_site_label
  _atom_site_occupancy
  _atom_site_fract_x
  _atom_site_fract_y
  _atom_site_fract_z
  _atom_site_thermal_displace_type
  _atom_site_B_iso_or_equiv
  _atom_site_type_symbol
  O1       1.0000 0.25360  0.43176  0.24319  Biso   1.000  O
  O2       1.0000 0.56824  0.82185  0.90985  Biso   1.000  O
  O3       1.0000 0.17815  0.74640  0.57652  Biso   1.000  O
  O4       1.0000 0.74640  0.56825  0.24319  Biso   1.000  O
  O5       1.0000 0.43176  0.17816  0.90985  Biso   1.000  O
  O6       1.0000 0.82185  0.25360  0.57652  Biso   1.000  O
  O7       1.0000 0.93460  0.52974  0.39958  Biso   1.000  O
  O8       1.0000 0.47026  0.40486  0.06624  Biso   1.000  O
  O9       1.0000 0.59514  0.06540  0.73291  Biso   1.000  O
  O10      1.0000 0.06540  0.47026  0.39958  Biso   1.000  O
  O11      1.0000 0.52974  0.59514  0.06624  Biso   1.000  O
  O12      1.0000 0.40486  0.93460  0.73291  Biso   1.000  O
  O13      1.0000 0.29588  0.36229  0.07408  Biso   1.000  O
  O14      1.0000 0.63771  0.93359  0.74074  Biso   1.000  O
  O15      1.0000 0.06641  0.70412  0.40741  Biso   1.000  O
  O16      1.0000 0.70412  0.63771  0.07408  Biso   1.000  O
  O17      1.0000 0.36229  0.06641  0.74074  Biso   1.000  O
  O18      1.0000 0.93359  0.29588  0.40741  Biso   1.000  O
  O19      1.0000 0.53827  0.18136  0.74880  Biso   1.000  O
  O20      1.0000 0.81864  0.35692  0.41546  Biso   1.000  O
  O21      1.0000 0.64308  0.46173  0.08213  Biso   1.000  O
  O22      1.0000 0.46173  0.81864  0.74880  Biso   1.000  O
  O23      1.0000 0.18136  0.64308  0.41546  Biso   1.000  O
  O24      1.0000 0.35692  0.53827  0.08213  Biso   1.000  O
  O25      1.0000 0.36218  0.29604  0.92639  Biso   1.000  O
  O26      1.0000 0.70396  0.06613  0.59305  Biso   1.000  O
  O27      1.0000 0.93387  0.63782  0.25972  Biso   1.000  O
  O28      1.0000 0.63782  0.70396  0.92639  Biso   1.000  O
  O29      1.0000 0.29604  0.93387  0.59305  Biso   1.000  O
  O30      1.0000 0.06613  0.36218  0.25972  Biso   1.000  O
  O31      1.0000 0.56817  0.74615  0.75735  Biso   1.000  O
  O32      1.0000 0.25385  0.82202  0.42402  Biso   1.000  O
  O33      1.0000 0.17798  0.43183  0.09068  Biso   1.000  O
  O34      1.0000 0.43183  0.25385  0.75735  Biso   1.000  O
  O35      1.0000 0.74615  0.17798  0.42402  Biso   1.000  O
  O36      1.0000 0.82202  0.56817  0.09068  Biso   1.000  O
  O37      1.0000 0.40470  0.47037  0.93422  Biso   1.000  O
  O38      1.0000 0.52963  0.93433  0.60088  Biso   1.000  O
  O39      1.0000 0.06567  0.59530  0.26755  Biso   1.000  O
  O40      1.0000 0.59530  0.52963  0.93422  Biso   1.000  O
  O41      1.0000 0.47037  0.06567  0.60088  Biso   1.000  O
  O42      1.0000 0.93433  0.40470  0.26755  Biso   1.000  O
  O43      1.0000 0.64313  0.18134  0.58527  Biso   1.000  O
  O44      1.0000 0.81866  0.46179  0.25194  Biso   1.000  O
  O45      1.0000 0.53821  0.35687  0.91860  Biso   1.000  O
  O46      1.0000 0.35687  0.81866  0.58527  Biso   1.000  O
  O47      1.0000 0.18134  0.53821  0.25194  Biso   1.000  O
  O48      1.0000 0.46179  0.64313  0.91860  Biso   1.000  O
  Ir1      1.0000 0.87420  0.43712  0.33370  Biso   1.000  Ir
  Ir2      1.0000 0.56289  0.43708  0.00037  Biso   1.000  Ir
  Ir3      1.0000 0.56292  0.12580  0.66704  Biso   1.000  Ir
  Ir4      1.0000 0.12580  0.56288  0.33370  Biso   1.000  Ir
  Ir5      1.0000 0.43711  0.56292  0.00037  Biso   1.000  Ir
  Ir6      1.0000 0.43708  0.87420  0.66704  Biso   1.000  Ir
  Ir7      1.0000 0.83638  0.27614  0.45085  Biso   1.000  Ir
  Ir8      1.0000 0.72386  0.56024  0.11752  Biso   1.000  Ir
  Ir9      1.0000 0.43976  0.16362  0.78419  Biso   1.000  Ir
  Ir10     1.0000 0.16362  0.72386  0.45085  Biso   1.000  Ir
  Ir11     1.0000 0.27614  0.43976  0.11752  Biso   1.000  Ir
  Ir12     1.0000 0.56024  0.83638  0.78419  Biso   1.000  Ir
  Ir13     1.0000 0.83660  0.56032  0.21637  Biso   1.000  Ir
  Ir14     1.0000 0.43968  0.27627  0.88303  Biso   1.000  Ir
  Ir15     1.0000 0.72373  0.16340  0.54970  Biso   1.000  Ir
  Ir16     1.0000 0.16340  0.43968  0.21637  Biso   1.000  Ir
  Ir17     1.0000 0.56032  0.72373  0.88303  Biso   1.000  Ir
  Ir18     1.0000 0.27627  0.83660  0.54970  Biso   1.000  Ir
  Ir19     1.0000 0.62012  0.99985  0.66688  Biso   1.000  Ir
  Ir20     1.0000 0.00015  0.62027  0.33355  Biso   1.000  Ir
  Ir21     1.0000 0.37973  0.37988  0.00022  Biso   1.000  Ir
  Ir22     1.0000 0.37988  0.00015  0.66688  Biso   1.000  Ir
  Ir23     1.0000 0.99985  0.37973  0.33355  Biso   1.000  Ir
  Ir24     1.0000 0.62027  0.62012  0.00022  Biso   1.000  Ir
