data_image0
_cell_length_a       5.50926
_cell_length_b       5.59453
_cell_length_c       7.96798
_cell_angle_alpha    90
_cell_angle_beta     90
_cell_angle_gamma    90

_symmetry_space_group_name_H-M    "P 1"
_symmetry_int_tables_number       1

loop_
  _symmetry_equiv_pos_as_xyz
  'x, y, z'

loop_
  _atom_site_label
  _atom_site_occupancy
  _atom_site_fract_x
  _atom_site_fract_y
  _atom_site_fract_z
  _atom_site_thermal_displace_type
  _atom_site_B_iso_or_equiv
  _atom_site_type_symbol
  Ir1      1.0000 0.00000  0.00000  0.00000  Biso   1.000  Ir
  Ir2      1.0000 0.50000  0.00000  0.50000  Biso   1.000  Ir
  Ir3      1.0000 0.00000  0.50000  0.50000  Biso   1.000  Ir
  Ir4      1.0000 0.50000  0.50000  0.00000  Biso   1.000  Ir
  O1       1.0000 0.10457  0.11018  0.57857  Biso   1.000  O
  O2       1.0000 0.39543  0.88982  0.07857  Biso   1.000  O
  O3       1.0000 0.89543  0.61018  0.92143  Biso   1.000  O
  O4       1.0000 0.60457  0.38982  0.42143  Biso   1.000  O
  O5       1.0000 0.89543  0.88982  0.42143  Biso   1.000  O
  O6       1.0000 0.60457  0.11018  0.92143  Biso   1.000  O
  O7       1.0000 0.10457  0.38982  0.07857  Biso   1.000  O
  O8       1.0000 0.39543  0.61018  0.57857  Biso   1.000  O
