data_image0
_cell_length_a       19.6622
_cell_length_b       19.6621
_cell_length_c       5.44479
_cell_angle_alpha    90
_cell_angle_beta     90
_cell_angle_gamma    120

_symmetry_space_group_name_H-M    "P 1"
_symmetry_int_tables_number       1

loop_
  _symmetry_equiv_pos_as_xyz
  'x, y, z'

loop_
  _atom_site_label
  _atom_site_occupancy
  _atom_site_fract_x
  _atom_site_fract_y
  _atom_site_fract_z
  _atom_site_thermal_displace_type
  _atom_site_B_iso_or_equiv
  _atom_site_type_symbol
  O1       1.0000 0.84192  0.50859  0.33333  Biso   1.000  O
  O2       1.0000 0.15807  0.66667  0.66667  Biso   1.000  O
  O3       1.0000 1.00000  0.82474  0.00000  Biso   1.000  O
  O4       1.0000 0.15807  0.49141  0.66667  Biso   1.000  O
  O5       1.0000 0.84193  0.33333  0.33333  Biso   1.000  O
  O6       1.0000 0.00000  0.17526  0.00000  Biso   1.000  O
  O7       1.0000 0.83333  0.16667  0.16667  Biso   1.000  O
  O8       1.0000 0.83333  0.66667  0.16667  Biso   1.000  O
  O9       1.0000 0.00000  0.50000  0.50000  Biso   1.000  O
  O10      1.0000 0.83333  0.16667  0.66667  Biso   1.000  O
  O11      1.0000 0.83333  0.66667  0.66667  Biso   1.000  O
  O12      1.0000 0.00000  0.50000  0.00000  Biso   1.000  O
  O13      1.0000 0.50859  0.84192  0.66667  Biso   1.000  O
  O14      1.0000 0.82474  0.00000  0.00000  Biso   1.000  O
  O15      1.0000 0.66667  0.15807  0.33333  Biso   1.000  O
  O16      1.0000 0.82474  0.82474  0.00000  Biso   1.000  O
  O17      1.0000 0.50859  0.66667  0.66667  Biso   1.000  O
  O18      1.0000 0.66667  0.50859  0.33333  Biso   1.000  O
  O19      1.0000 0.50000  0.50000  0.50000  Biso   1.000  O
  O20      1.0000 0.50000  0.00000  0.50000  Biso   1.000  O
  O21      1.0000 0.66667  0.83333  0.83333  Biso   1.000  O
  O22      1.0000 0.50000  0.50000  0.00000  Biso   1.000  O
  O23      1.0000 0.50000  0.00000  0.00000  Biso   1.000  O
  O24      1.0000 0.66667  0.83333  0.33333  Biso   1.000  O
  O25      1.0000 0.17526  0.17526  0.00000  Biso   1.000  O
  O26      1.0000 0.49141  0.33333  0.33333  Biso   1.000  O
  O27      1.0000 0.33333  0.49141  0.66667  Biso   1.000  O
  O28      1.0000 0.49141  0.15807  0.33333  Biso   1.000  O
  O29      1.0000 0.17526  0.00000  0.00000  Biso   1.000  O
  O30      1.0000 0.33333  0.84192  0.66667  Biso   1.000  O
  O31      1.0000 0.16667  0.83333  0.83333  Biso   1.000  O
  O32      1.0000 0.16667  0.33333  0.83333  Biso   1.000  O
  O33      1.0000 0.33333  0.16667  0.16667  Biso   1.000  O
  O34      1.0000 0.16667  0.83333  0.33333  Biso   1.000  O
  O35      1.0000 0.16667  0.33333  0.33333  Biso   1.000  O
  O36      1.0000 0.33333  0.16667  0.66667  Biso   1.000  O
  Ir1      1.0000 0.91831  0.45915  0.26377  Biso   1.000  Ir
  Ir2      1.0000 0.87418  0.12582  0.93044  Biso   1.000  Ir
  Ir3      1.0000 0.87418  0.74836  0.93044  Biso   1.000  Ir
  Ir4      1.0000 0.08169  0.54085  0.73623  Biso   1.000  Ir
  Ir5      1.0000 0.79249  0.58497  0.40289  Biso   1.000  Ir
  Ir6      1.0000 0.12582  0.87418  0.06956  Biso   1.000  Ir
  Ir7      1.0000 0.58497  0.79249  0.59711  Biso   1.000  Ir
  Ir8      1.0000 0.54085  0.45915  0.26377  Biso   1.000  Ir
  Ir9      1.0000 0.54085  0.08169  0.26377  Biso   1.000  Ir
  Ir10     1.0000 0.74836  0.87418  0.06956  Biso   1.000  Ir
  Ir11     1.0000 0.45915  0.91831  0.73623  Biso   1.000  Ir
  Ir12     1.0000 0.79249  0.20751  0.40289  Biso   1.000  Ir
  Ir13     1.0000 0.25164  0.12582  0.93044  Biso   1.000  Ir
  Ir14     1.0000 0.20751  0.79249  0.59711  Biso   1.000  Ir
  Ir15     1.0000 0.20751  0.41503  0.59711  Biso   1.000  Ir
  Ir16     1.0000 0.41503  0.20751  0.40289  Biso   1.000  Ir
  Ir17     1.0000 0.12582  0.25164  0.06956  Biso   1.000  Ir
  Ir18     1.0000 0.45915  0.54085  0.73623  Biso   1.000  Ir
