data_image0
_cell_length_a       12.9343
_cell_length_b       4.08541
_cell_length_c       6.59187
_cell_angle_alpha    90
_cell_angle_beta     103.285
_cell_angle_gamma    90

_symmetry_space_group_name_H-M    "P 1"
_symmetry_int_tables_number       1

loop_
  _symmetry_equiv_pos_as_xyz
  'x, y, z'

loop_
  _atom_site_label
  _atom_site_occupancy
  _atom_site_fract_x
  _atom_site_fract_y
  _atom_site_fract_z
  _atom_site_thermal_displace_type
  _atom_site_B_iso_or_equiv
  _atom_site_type_symbol
  Ir1      1.0000 0.25000  0.75000  0.50000  Biso   1.000  Ir
  Ir2      1.0000 0.25000  0.25000  0.00000  Biso   1.000  Ir
  Ir3      1.0000 0.75000  0.25000  0.50000  Biso   1.000  Ir
  Ir4      1.0000 0.75000  0.75000  0.00000  Biso   1.000  Ir
  O1       1.0000 0.44990  0.15793  0.43964  Biso   1.000  O
  O2       1.0000 0.05010  0.65793  0.06036  Biso   1.000  O
  O3       1.0000 0.05010  0.34207  0.56035  Biso   1.000  O
  O4       1.0000 0.44990  0.84207  0.93964  Biso   1.000  O
  O5       1.0000 0.94990  0.65793  0.43964  Biso   1.000  O
  O6       1.0000 0.55010  0.15793  0.06036  Biso   1.000  O
  O7       1.0000 0.55010  0.84207  0.56035  Biso   1.000  O
  O8       1.0000 0.94990  0.34207  0.93964  Biso   1.000  O
