data_image0
_cell_length_a       9.06461
_cell_length_b       9.06461
_cell_length_c       10.0666
_cell_angle_alpha    90
_cell_angle_beta     90
_cell_angle_gamma    90

_symmetry_space_group_name_H-M    "P 1"
_symmetry_int_tables_number       1

loop_
  _symmetry_equiv_pos_as_xyz
  'x, y, z'

loop_
  _atom_site_label
  _atom_site_occupancy
  _atom_site_fract_x
  _atom_site_fract_y
  _atom_site_fract_z
  _atom_site_thermal_displace_type
  _atom_site_B_iso_or_equiv
  _atom_site_type_symbol
  O1       1.0000 0.37826  0.60893  0.06276  Biso   1.000  O
  O2       1.0000 0.62174  0.39107  0.56276  Biso   1.000  O
  O3       1.0000 0.89107  0.87826  0.81276  Biso   1.000  O
  O4       1.0000 0.10893  0.12174  0.31276  Biso   1.000  O
  O5       1.0000 0.12174  0.10893  0.68724  Biso   1.000  O
  O6       1.0000 0.87826  0.89107  0.18724  Biso   1.000  O
  O7       1.0000 0.60893  0.37826  0.93724  Biso   1.000  O
  O8       1.0000 0.39107  0.62174  0.43724  Biso   1.000  O
  O9       1.0000 0.86869  0.57399  0.06293  Biso   1.000  O
  O10      1.0000 0.13131  0.42601  0.56293  Biso   1.000  O
  O11      1.0000 0.92601  0.36869  0.81293  Biso   1.000  O
  O12      1.0000 0.07399  0.63131  0.31293  Biso   1.000  O
  O13      1.0000 0.63131  0.07399  0.68707  Biso   1.000  O
  O14      1.0000 0.36869  0.92601  0.18707  Biso   1.000  O
  O15      1.0000 0.57399  0.86869  0.93707  Biso   1.000  O
  O16      1.0000 0.42601  0.13131  0.43707  Biso   1.000  O
  O17      1.0000 0.86906  0.22244  0.09928  Biso   1.000  O
  O18      1.0000 0.13094  0.77756  0.59928  Biso   1.000  O
  O19      1.0000 0.27756  0.36906  0.84928  Biso   1.000  O
  O20      1.0000 0.72244  0.63094  0.34928  Biso   1.000  O
  O21      1.0000 0.63094  0.72244  0.65073  Biso   1.000  O
  O22      1.0000 0.36906  0.27756  0.15073  Biso   1.000  O
  O23      1.0000 0.22244  0.86906  0.90072  Biso   1.000  O
  O24      1.0000 0.77756  0.13094  0.40072  Biso   1.000  O
  Ir1      1.0000 0.40733  0.40733  0.00000  Biso   1.000  Ir
  Ir2      1.0000 0.59267  0.59267  0.50000  Biso   1.000  Ir
  Ir3      1.0000 0.09267  0.90733  0.75000  Biso   1.000  Ir
  Ir4      1.0000 0.90733  0.09267  0.25000  Biso   1.000  Ir
  Ir5      1.0000 0.38512  0.81837  0.01983  Biso   1.000  Ir
  Ir6      1.0000 0.61488  0.18163  0.51983  Biso   1.000  Ir
  Ir7      1.0000 0.68163  0.88512  0.76983  Biso   1.000  Ir
  Ir8      1.0000 0.31837  0.11488  0.26983  Biso   1.000  Ir
  Ir9      1.0000 0.11488  0.31837  0.73017  Biso   1.000  Ir
  Ir10     1.0000 0.88512  0.68163  0.23017  Biso   1.000  Ir
  Ir11     1.0000 0.81837  0.38512  0.98017  Biso   1.000  Ir
  Ir12     1.0000 0.18163  0.61488  0.48017  Biso   1.000  Ir
