data_image0
_cell_length_a       11.7959
_cell_length_b       24.7883
_cell_length_c       24.9238
_cell_angle_alpha    90
_cell_angle_beta     90
_cell_angle_gamma    90

_symmetry_space_group_name_H-M    "P 1"
_symmetry_int_tables_number       1

loop_
  _symmetry_equiv_pos_as_xyz
  'x, y, z'

loop_
  _atom_site_label
  _atom_site_occupancy
  _atom_site_fract_x
  _atom_site_fract_y
  _atom_site_fract_z
  _atom_site_thermal_displace_type
  _atom_site_B_iso_or_equiv
  _atom_site_type_symbol
  O1       1.0000 0.86027  0.58309  0.73485  Biso   1.000  O
  O2       1.0000 0.13973  0.41691  0.73485  Biso   1.000  O
  O3       1.0000 0.13973  0.58309  0.26515  Biso   1.000  O
  O4       1.0000 0.86027  0.41691  0.26515  Biso   1.000  O
  O5       1.0000 0.13973  0.41691  0.26515  Biso   1.000  O
  O6       1.0000 0.86027  0.58309  0.26515  Biso   1.000  O
  O7       1.0000 0.86027  0.41691  0.73485  Biso   1.000  O
  O8       1.0000 0.13973  0.58309  0.73485  Biso   1.000  O
  O9       1.0000 0.15517  0.68015  0.18019  Biso   1.000  O
  O10      1.0000 0.84483  0.31985  0.18019  Biso   1.000  O
  O11      1.0000 0.84483  0.68015  0.81981  Biso   1.000  O
  O12      1.0000 0.15517  0.31985  0.81981  Biso   1.000  O
  O13      1.0000 0.84483  0.31985  0.81981  Biso   1.000  O
  O14      1.0000 0.15517  0.68015  0.81981  Biso   1.000  O
  O15      1.0000 0.15517  0.31985  0.18019  Biso   1.000  O
  O16      1.0000 0.84483  0.68015  0.18019  Biso   1.000  O
  O17      1.0000 0.73601  0.13722  0.56985  Biso   1.000  O
  O18      1.0000 0.26399  0.86278  0.56985  Biso   1.000  O
  O19      1.0000 0.26399  0.13722  0.43016  Biso   1.000  O
  O20      1.0000 0.73601  0.86278  0.43016  Biso   1.000  O
  O21      1.0000 0.26399  0.86278  0.43016  Biso   1.000  O
  O22      1.0000 0.73601  0.13722  0.43016  Biso   1.000  O
  O23      1.0000 0.73601  0.86278  0.56985  Biso   1.000  O
  O24      1.0000 0.26399  0.13722  0.56985  Biso   1.000  O
  O25      1.0000 0.72003  0.93104  0.32087  Biso   1.000  O
  O26      1.0000 0.27997  0.06896  0.32087  Biso   1.000  O
  O27      1.0000 0.27997  0.93104  0.67913  Biso   1.000  O
  O28      1.0000 0.72003  0.06896  0.67913  Biso   1.000  O
  O29      1.0000 0.27997  0.06896  0.67913  Biso   1.000  O
  O30      1.0000 0.72003  0.93104  0.67913  Biso   1.000  O
  O31      1.0000 0.72003  0.06896  0.32087  Biso   1.000  O
  O32      1.0000 0.27997  0.93104  0.32087  Biso   1.000  O
  O33      1.0000 0.00000  0.34321  0.50000  Biso   1.000  O
  O34      1.0000 0.00000  0.65679  0.50000  Biso   1.000  O
  O35      1.0000 0.86019  0.73384  0.58101  Biso   1.000  O
  O36      1.0000 0.13981  0.26616  0.58101  Biso   1.000  O
  O37      1.0000 0.13981  0.73384  0.41899  Biso   1.000  O
  O38      1.0000 0.86019  0.26616  0.41899  Biso   1.000  O
  O39      1.0000 0.13981  0.26616  0.41899  Biso   1.000  O
  O40      1.0000 0.86019  0.73384  0.41899  Biso   1.000  O
  O41      1.0000 0.86019  0.26616  0.58101  Biso   1.000  O
  O42      1.0000 0.13981  0.73384  0.58101  Biso   1.000  O
  O43      1.0000 0.00000  0.92517  0.31612  Biso   1.000  O
  O44      1.0000 0.00000  0.07483  0.31612  Biso   1.000  O
  O45      1.0000 0.00000  0.92517  0.68389  Biso   1.000  O
  O46      1.0000 0.00000  0.07483  0.68389  Biso   1.000  O
  O47      1.0000 0.73578  0.42900  0.13691  Biso   1.000  O
  O48      1.0000 0.26422  0.57100  0.13691  Biso   1.000  O
  O49      1.0000 0.26422  0.42900  0.86309  Biso   1.000  O
  O50      1.0000 0.73578  0.57100  0.86309  Biso   1.000  O
  O51      1.0000 0.26422  0.57100  0.86309  Biso   1.000  O
  O52      1.0000 0.73578  0.42900  0.86309  Biso   1.000  O
  O53      1.0000 0.73578  0.57100  0.13691  Biso   1.000  O
  O54      1.0000 0.26422  0.42900  0.13691  Biso   1.000  O
  O55      1.0000 0.85990  0.10520  0.78689  Biso   1.000  O
  O56      1.0000 0.14010  0.89480  0.78689  Biso   1.000  O
  O57      1.0000 0.14010  0.10520  0.21311  Biso   1.000  O
  O58      1.0000 0.85990  0.89480  0.21311  Biso   1.000  O
  O59      1.0000 0.14010  0.89480  0.21311  Biso   1.000  O
  O60      1.0000 0.85990  0.10520  0.21311  Biso   1.000  O
  O61      1.0000 0.85990  0.89480  0.78689  Biso   1.000  O
  O62      1.0000 0.14010  0.10520  0.78689  Biso   1.000  O
  O63      1.0000 0.00000  0.57299  0.15793  Biso   1.000  O
  O64      1.0000 0.00000  0.42701  0.15793  Biso   1.000  O
  O65      1.0000 0.00000  0.57299  0.84207  Biso   1.000  O
  O66      1.0000 0.00000  0.42701  0.84207  Biso   1.000  O
  O67      1.0000 0.00000  0.15805  0.42802  Biso   1.000  O
  O68      1.0000 0.00000  0.84195  0.42802  Biso   1.000  O
  O69      1.0000 0.00000  0.15805  0.57198  Biso   1.000  O
  O70      1.0000 0.00000  0.84195  0.57198  Biso   1.000  O
  O71      1.0000 0.00000  0.09989  0.10261  Biso   1.000  O
  O72      1.0000 0.00000  0.90011  0.10261  Biso   1.000  O
  O73      1.0000 0.00000  0.09989  0.89739  Biso   1.000  O
  O74      1.0000 0.00000  0.90011  0.89739  Biso   1.000  O
  O75      1.0000 0.84405  0.18183  0.32189  Biso   1.000  O
  O76      1.0000 0.15595  0.81817  0.32189  Biso   1.000  O
  O77      1.0000 0.15595  0.18183  0.67811  Biso   1.000  O
  O78      1.0000 0.84405  0.81817  0.67811  Biso   1.000  O
  O79      1.0000 0.15595  0.81817  0.67811  Biso   1.000  O
  O80      1.0000 0.84405  0.18183  0.67811  Biso   1.000  O
  O81      1.0000 0.84405  0.81817  0.32189  Biso   1.000  O
  O82      1.0000 0.15595  0.18183  0.32189  Biso   1.000  O
  O83      1.0000 0.50000  0.60392  0.91407  Biso   1.000  O
  O84      1.0000 0.50000  0.39608  0.91407  Biso   1.000  O
  O85      1.0000 0.50000  0.60392  0.08593  Biso   1.000  O
  O86      1.0000 0.50000  0.39608  0.08593  Biso   1.000  O
  O87      1.0000 0.00000  0.62795  0.62814  Biso   1.000  O
  O88      1.0000 0.00000  0.37205  0.62814  Biso   1.000  O
  O89      1.0000 0.00000  0.62795  0.37186  Biso   1.000  O
  O90      1.0000 0.00000  0.37205  0.37186  Biso   1.000  O
  O91      1.0000 0.00000  0.82888  0.00000  Biso   1.000  O
  O92      1.0000 0.00000  0.17112  0.00000  Biso   1.000  O
  O93      1.0000 0.27974  0.31966  0.93194  Biso   1.000  O
  O94      1.0000 0.72026  0.68034  0.93194  Biso   1.000  O
  O95      1.0000 0.72026  0.31966  0.06806  Biso   1.000  O
  O96      1.0000 0.27974  0.68034  0.06806  Biso   1.000  O
  O97      1.0000 0.72026  0.68034  0.06806  Biso   1.000  O
  O98      1.0000 0.27974  0.31966  0.06806  Biso   1.000  O
  O99      1.0000 0.27974  0.68034  0.93194  Biso   1.000  O
  O100     1.0000 0.72026  0.31966  0.93194  Biso   1.000  O
  O101     1.0000 0.00000  0.31494  0.07389  Biso   1.000  O
  O102     1.0000 0.00000  0.68506  0.07389  Biso   1.000  O
  O103     1.0000 0.00000  0.31494  0.92611  Biso   1.000  O
  O104     1.0000 0.00000  0.68506  0.92611  Biso   1.000  O
  O105     1.0000 0.50000  0.08609  0.60296  Biso   1.000  O
  O106     1.0000 0.50000  0.91391  0.60296  Biso   1.000  O
  O107     1.0000 0.50000  0.08609  0.39705  Biso   1.000  O
  O108     1.0000 0.50000  0.91391  0.39705  Biso   1.000  O
  O109     1.0000 0.00000  0.00000  0.17818  Biso   1.000  O
  O110     1.0000 0.00000  0.00000  0.82182  Biso   1.000  O
  O111     1.0000 0.00000  0.50000  0.34031  Biso   1.000  O
  O112     1.0000 0.00000  0.50000  0.65969  Biso   1.000  O
  O113     1.0000 0.85992  0.21098  0.10315  Biso   1.000  O
  O114     1.0000 0.14008  0.78902  0.10315  Biso   1.000  O
  O115     1.0000 0.14008  0.21098  0.89685  Biso   1.000  O
  O116     1.0000 0.85992  0.78902  0.89685  Biso   1.000  O
  O117     1.0000 0.14008  0.78902  0.89685  Biso   1.000  O
  O118     1.0000 0.85992  0.21098  0.89685  Biso   1.000  O
  O119     1.0000 0.85992  0.78902  0.10315  Biso   1.000  O
  O120     1.0000 0.14008  0.21098  0.10315  Biso   1.000  O
  O121     1.0000 0.69303  0.00000  0.57201  Biso   1.000  O
  O122     1.0000 0.30697  0.00000  0.57201  Biso   1.000  O
  O123     1.0000 0.30697  0.00000  0.42799  Biso   1.000  O
  O124     1.0000 0.69303  0.00000  0.42799  Biso   1.000  O
  O125     1.0000 0.30696  0.42729  0.00000  Biso   1.000  O
  O126     1.0000 0.69304  0.57271  0.00000  Biso   1.000  O
  O127     1.0000 0.69304  0.42729  0.00000  Biso   1.000  O
  O128     1.0000 0.30696  0.57271  0.00000  Biso   1.000  O
  Ir1      1.0000 0.00000  0.92243  0.82269  Biso   1.000  Ir
  Ir2      1.0000 0.00000  0.07757  0.82269  Biso   1.000  Ir
  Ir3      1.0000 0.00000  0.92243  0.17731  Biso   1.000  Ir
  Ir4      1.0000 0.00000  0.07757  0.17731  Biso   1.000  Ir
  Ir5      1.0000 0.66349  0.92725  0.60412  Biso   1.000  Ir
  Ir6      1.0000 0.33651  0.07275  0.60412  Biso   1.000  Ir
  Ir7      1.0000 0.33651  0.92725  0.39588  Biso   1.000  Ir
  Ir8      1.0000 0.66349  0.07275  0.39588  Biso   1.000  Ir
  Ir9      1.0000 0.33651  0.07275  0.39588  Biso   1.000  Ir
  Ir10     1.0000 0.66349  0.92725  0.39588  Biso   1.000  Ir
  Ir11     1.0000 0.66349  0.07275  0.60412  Biso   1.000  Ir
  Ir12     1.0000 0.33651  0.92725  0.60412  Biso   1.000  Ir
  Ir13     1.0000 0.85258  0.89258  0.70802  Biso   1.000  Ir
  Ir14     1.0000 0.14742  0.10742  0.70802  Biso   1.000  Ir
  Ir15     1.0000 0.14742  0.89258  0.29198  Biso   1.000  Ir
  Ir16     1.0000 0.85258  0.10742  0.29198  Biso   1.000  Ir
  Ir17     1.0000 0.14742  0.10742  0.29198  Biso   1.000  Ir
  Ir18     1.0000 0.85258  0.89258  0.29198  Biso   1.000  Ir
  Ir19     1.0000 0.85258  0.10742  0.70802  Biso   1.000  Ir
  Ir20     1.0000 0.14742  0.89258  0.70802  Biso   1.000  Ir
  Ir21     1.0000 0.14602  0.81237  0.40162  Biso   1.000  Ir
  Ir22     1.0000 0.85398  0.18763  0.40162  Biso   1.000  Ir
  Ir23     1.0000 0.85398  0.81237  0.59838  Biso   1.000  Ir
  Ir24     1.0000 0.14602  0.18763  0.59838  Biso   1.000  Ir
  Ir25     1.0000 0.85398  0.18763  0.59838  Biso   1.000  Ir
  Ir26     1.0000 0.14602  0.81237  0.59838  Biso   1.000  Ir
  Ir27     1.0000 0.14602  0.18763  0.40162  Biso   1.000  Ir
  Ir28     1.0000 0.85398  0.81237  0.40162  Biso   1.000  Ir
  Ir29     1.0000 0.14720  0.70980  0.10596  Biso   1.000  Ir
  Ir30     1.0000 0.85280  0.29020  0.10596  Biso   1.000  Ir
  Ir31     1.0000 0.85280  0.70980  0.89404  Biso   1.000  Ir
  Ir32     1.0000 0.14720  0.29020  0.89404  Biso   1.000  Ir
  Ir33     1.0000 0.85280  0.29020  0.89404  Biso   1.000  Ir
  Ir34     1.0000 0.14720  0.70980  0.89404  Biso   1.000  Ir
  Ir35     1.0000 0.14720  0.29020  0.10596  Biso   1.000  Ir
  Ir36     1.0000 0.85280  0.70980  0.10596  Biso   1.000  Ir
  Ir37     1.0000 0.00000  0.42510  0.68829  Biso   1.000  Ir
  Ir38     1.0000 0.00000  0.57490  0.68829  Biso   1.000  Ir
  Ir39     1.0000 0.00000  0.42510  0.31171  Biso   1.000  Ir
  Ir40     1.0000 0.00000  0.57490  0.31171  Biso   1.000  Ir
  Ir41     1.0000 0.00000  0.82586  0.92299  Biso   1.000  Ir
  Ir42     1.0000 0.00000  0.17414  0.92299  Biso   1.000  Ir
  Ir43     1.0000 0.00000  0.82586  0.07701  Biso   1.000  Ir
  Ir44     1.0000 0.00000  0.17414  0.07701  Biso   1.000  Ir
  Ir45     1.0000 0.00000  0.31295  0.57388  Biso   1.000  Ir
  Ir46     1.0000 0.00000  0.68705  0.57388  Biso   1.000  Ir
  Ir47     1.0000 0.00000  0.31295  0.42612  Biso   1.000  Ir
  Ir48     1.0000 0.00000  0.68705  0.42612  Biso   1.000  Ir
  Ir49     1.0000 0.14602  0.60006  0.18682  Biso   1.000  Ir
  Ir50     1.0000 0.85398  0.39994  0.18682  Biso   1.000  Ir
  Ir51     1.0000 0.85398  0.60006  0.81317  Biso   1.000  Ir
  Ir52     1.0000 0.14602  0.39994  0.81317  Biso   1.000  Ir
  Ir53     1.0000 0.85398  0.39994  0.81317  Biso   1.000  Ir
  Ir54     1.0000 0.14602  0.60006  0.81317  Biso   1.000  Ir
  Ir55     1.0000 0.14602  0.39994  0.18682  Biso   1.000  Ir
  Ir56     1.0000 0.85398  0.60006  0.18682  Biso   1.000  Ir
  Ir57     1.0000 0.33651  0.39497  0.07241  Biso   1.000  Ir
  Ir58     1.0000 0.66350  0.60503  0.07241  Biso   1.000  Ir
  Ir59     1.0000 0.66350  0.39497  0.92759  Biso   1.000  Ir
  Ir60     1.0000 0.33651  0.60503  0.92759  Biso   1.000  Ir
  Ir61     1.0000 0.66350  0.60503  0.92759  Biso   1.000  Ir
  Ir62     1.0000 0.33651  0.39497  0.92759  Biso   1.000  Ir
  Ir63     1.0000 0.33651  0.60503  0.07241  Biso   1.000  Ir
  Ir64     1.0000 0.66350  0.39497  0.07241  Biso   1.000  Ir
