data_image0
_cell_length_a       3.46748
_cell_length_b       6.28068
_cell_length_c       4.17679
_cell_angle_alpha    90
_cell_angle_beta     90
_cell_angle_gamma    90

_symmetry_space_group_name_H-M    "P 1"
_symmetry_int_tables_number       1

loop_
  _symmetry_equiv_pos_as_xyz
  'x, y, z'

loop_
  _atom_site_label
  _atom_site_occupancy
  _atom_site_fract_x
  _atom_site_fract_y
  _atom_site_fract_z
  _atom_site_thermal_displace_type
  _atom_site_B_iso_or_equiv
  _atom_site_type_symbol
  O1       1.0000 0.50000  0.76955  0.83987  Biso   1.000  O
  O2       1.0000 0.50000  0.23045  0.83987  Biso   1.000  O
  O3       1.0000 0.00000  0.50000  0.35642  Biso   1.000  O
  O4       1.0000 0.00000  0.00000  0.33548  Biso   1.000  O
  Ir1      1.0000 0.00000  0.00000  0.79604  Biso   1.000  Ir
  Ir2      1.0000 0.50000  0.50000  0.11307  Biso   1.000  Ir
