data_image0
_cell_length_a       6.16391
_cell_length_b       6.16392
_cell_length_c       5.65004
_cell_angle_alpha    90
_cell_angle_beta     90
_cell_angle_gamma    120

_symmetry_space_group_name_H-M    "P 1"
_symmetry_int_tables_number       1

loop_
  _symmetry_equiv_pos_as_xyz
  'x, y, z'

loop_
  _atom_site_label
  _atom_site_occupancy
  _atom_site_fract_x
  _atom_site_fract_y
  _atom_site_fract_z
  _atom_site_thermal_displace_type
  _atom_site_B_iso_or_equiv
  _atom_site_type_symbol
  Ir1      1.0000 0.44591  0.00000  0.33333  Biso   1.000  Ir
  Ir2      1.0000 0.00000  0.44592  0.66667  Biso   1.000  Ir
  Ir3      1.0000 0.55409  0.55409  0.00000  Biso   1.000  Ir
  O1       1.0000 0.61154  0.92178  0.08462  Biso   1.000  O
  O2       1.0000 0.07823  0.68977  0.41795  Biso   1.000  O
  O3       1.0000 0.31023  0.38846  0.75128  Biso   1.000  O
  O4       1.0000 0.92177  0.61154  0.91539  Biso   1.000  O
  O5       1.0000 0.68977  0.07823  0.58205  Biso   1.000  O
  O6       1.0000 0.38846  0.31023  0.24872  Biso   1.000  O
