data_image0
_cell_length_a       7.12989
_cell_length_b       9.19148
_cell_length_c       4.51541
_cell_angle_alpha    90
_cell_angle_beta     107.391
_cell_angle_gamma    90

_symmetry_space_group_name_H-M    "P 1"
_symmetry_int_tables_number       1

loop_
  _symmetry_equiv_pos_as_xyz
  'x, y, z'

loop_
  _atom_site_label
  _atom_site_occupancy
  _atom_site_fract_x
  _atom_site_fract_y
  _atom_site_fract_z
  _atom_site_thermal_displace_type
  _atom_site_B_iso_or_equiv
  _atom_site_type_symbol
  O1       1.0000 0.18756  0.00319  0.76605  Biso   1.000  O
  O2       1.0000 0.81244  0.00319  0.23395  Biso   1.000  O
  O3       1.0000 0.79223  0.83454  0.71612  Biso   1.000  O
  O4       1.0000 0.20777  0.83454  0.28388  Biso   1.000  O
  O5       1.0000 0.79216  0.17179  0.71612  Biso   1.000  O
  O6       1.0000 0.20784  0.17179  0.28388  Biso   1.000  O
  O7       1.0000 0.68756  0.50319  0.76605  Biso   1.000  O
  O8       1.0000 0.31244  0.50319  0.23395  Biso   1.000  O
  O9       1.0000 0.29223  0.33454  0.71612  Biso   1.000  O
  O10      1.0000 0.70777  0.33454  0.28388  Biso   1.000  O
  O11      1.0000 0.29216  0.67179  0.71612  Biso   1.000  O
  O12      1.0000 0.70784  0.67179  0.28388  Biso   1.000  O
  Ir1      1.0000 0.50000  0.50327  0.00000  Biso   1.000  Ir
  Ir2      1.0000 0.50000  0.32222  0.50000  Biso   1.000  Ir
  Ir3      1.0000 0.50000  0.68421  0.50000  Biso   1.000  Ir
  Ir4      1.0000 0.00000  0.00327  0.00000  Biso   1.000  Ir
  Ir5      1.0000 0.00000  0.82222  0.50000  Biso   1.000  Ir
  Ir6      1.0000 0.00000  0.18421  0.50000  Biso   1.000  Ir
