data_image0
_cell_length_a       7.28713
_cell_length_b       7.87345
_cell_length_c       7.91895
_cell_angle_alpha    104.151
_cell_angle_beta     109.034
_cell_angle_gamma    99.6133

_symmetry_space_group_name_H-M    "P 1"
_symmetry_int_tables_number       1

loop_
  _symmetry_equiv_pos_as_xyz
  'x, y, z'

loop_
  _atom_site_label
  _atom_site_occupancy
  _atom_site_fract_x
  _atom_site_fract_y
  _atom_site_fract_z
  _atom_site_thermal_displace_type
  _atom_site_B_iso_or_equiv
  _atom_site_type_symbol
  O1       1.0000 0.91894  0.45476  0.28098  Biso   1.000  O
  O2       1.0000 0.08106  0.54524  0.71902  Biso   1.000  O
  O3       1.0000 0.48319  0.78398  0.54506  Biso   1.000  O
  O4       1.0000 0.51681  0.21602  0.45494  Biso   1.000  O
  O5       1.0000 0.67925  0.15670  0.89058  Biso   1.000  O
  O6       1.0000 0.32075  0.84330  0.10942  Biso   1.000  O
  O7       1.0000 0.29663  0.31808  0.04311  Biso   1.000  O
  O8       1.0000 0.70337  0.68192  0.95689  Biso   1.000  O
  O9       1.0000 0.10682  0.02790  0.71790  Biso   1.000  O
  O10      1.0000 0.89318  0.97210  0.28210  Biso   1.000  O
  Ir1      1.0000 0.00000  0.00000  0.00000  Biso   1.000  Ir
  Ir2      1.0000 0.39716  0.84438  0.82758  Biso   1.000  Ir
  Ir3      1.0000 0.60284  0.15562  0.17242  Biso   1.000  Ir
  Ir4      1.0000 0.83231  0.74363  0.71438  Biso   1.000  Ir
  Ir5      1.0000 0.16769  0.25637  0.28562  Biso   1.000  Ir
