data_image0
_cell_length_a       12.3781
_cell_length_b       12.3781
_cell_length_c       12.4017
_cell_angle_alpha    90
_cell_angle_beta     90
_cell_angle_gamma    90

_symmetry_space_group_name_H-M    "P 1"
_symmetry_int_tables_number       1

loop_
  _symmetry_equiv_pos_as_xyz
  'x, y, z'

loop_
  _atom_site_label
  _atom_site_occupancy
  _atom_site_fract_x
  _atom_site_fract_y
  _atom_site_fract_z
  _atom_site_thermal_displace_type
  _atom_site_B_iso_or_equiv
  _atom_site_type_symbol
  O1       1.0000 0.51774  0.83980  0.04274  Biso   1.000  O
  O2       1.0000 0.48226  0.16020  0.54274  Biso   1.000  O
  O3       1.0000 0.66020  0.01774  0.29274  Biso   1.000  O
  O4       1.0000 0.33980  0.98226  0.79274  Biso   1.000  O
  O5       1.0000 0.98226  0.33980  0.20726  Biso   1.000  O
  O6       1.0000 0.01774  0.66020  0.70726  Biso   1.000  O
  O7       1.0000 0.83980  0.51774  0.95726  Biso   1.000  O
  O8       1.0000 0.16020  0.48226  0.45726  Biso   1.000  O
  O9       1.0000 0.64750  0.38142  0.04838  Biso   1.000  O
  O10      1.0000 0.35250  0.61858  0.54838  Biso   1.000  O
  O11      1.0000 0.11858  0.14750  0.29838  Biso   1.000  O
  O12      1.0000 0.88142  0.85250  0.79838  Biso   1.000  O
  O13      1.0000 0.85250  0.88142  0.20162  Biso   1.000  O
  O14      1.0000 0.14750  0.11858  0.70162  Biso   1.000  O
  O15      1.0000 0.38142  0.64750  0.95162  Biso   1.000  O
  O16      1.0000 0.61858  0.35250  0.45162  Biso   1.000  O
  O17      1.0000 0.29606  0.36195  0.11741  Biso   1.000  O
  O18      1.0000 0.70394  0.63804  0.61741  Biso   1.000  O
  O19      1.0000 0.13805  0.79606  0.36741  Biso   1.000  O
  O20      1.0000 0.86195  0.20394  0.86741  Biso   1.000  O
  O21      1.0000 0.20394  0.86195  0.13259  Biso   1.000  O
  O22      1.0000 0.79606  0.13805  0.63259  Biso   1.000  O
  O23      1.0000 0.36195  0.29606  0.88259  Biso   1.000  O
  O24      1.0000 0.63804  0.70394  0.38259  Biso   1.000  O
  Ir1      1.0000 0.39723  0.39723  0.00000  Biso   1.000  Ir
  Ir2      1.0000 0.60277  0.60277  0.50000  Biso   1.000  Ir
  Ir3      1.0000 0.10277  0.89723  0.25000  Biso   1.000  Ir
  Ir4      1.0000 0.89723  0.10277  0.75000  Biso   1.000  Ir
  Ir5      1.0000 0.80595  0.38537  0.03929  Biso   1.000  Ir
  Ir6      1.0000 0.19405  0.61463  0.53929  Biso   1.000  Ir
  Ir7      1.0000 0.11463  0.30595  0.28929  Biso   1.000  Ir
  Ir8      1.0000 0.88537  0.69405  0.78929  Biso   1.000  Ir
  Ir9      1.0000 0.69405  0.88537  0.21071  Biso   1.000  Ir
  Ir10     1.0000 0.30595  0.11463  0.71071  Biso   1.000  Ir
  Ir11     1.0000 0.38537  0.80595  0.96071  Biso   1.000  Ir
  Ir12     1.0000 0.61463  0.19405  0.46071  Biso   1.000  Ir
