data_image0
_cell_length_a       10.4895
_cell_length_b       10.4895
_cell_length_c       10.4895
_cell_angle_alpha    90
_cell_angle_beta     90
_cell_angle_gamma    90

_symmetry_space_group_name_H-M    "P 1"
_symmetry_int_tables_number       1

loop_
  _symmetry_equiv_pos_as_xyz
  'x, y, z'

loop_
  _atom_site_label
  _atom_site_occupancy
  _atom_site_fract_x
  _atom_site_fract_y
  _atom_site_fract_z
  _atom_site_thermal_displace_type
  _atom_site_B_iso_or_equiv
  _atom_site_type_symbol
  O1       1.0000 0.83440  0.00000  0.50000  Biso   1.000  O
  O2       1.0000 0.16560  0.00000  0.50000  Biso   1.000  O
  O3       1.0000 0.50000  0.83440  0.00000  Biso   1.000  O
  O4       1.0000 0.50000  0.16560  0.00000  Biso   1.000  O
  O5       1.0000 0.00000  0.50000  0.83440  Biso   1.000  O
  O6       1.0000 0.00000  0.50000  0.16560  Biso   1.000  O
  O7       1.0000 0.08383  0.73684  0.67917  Biso   1.000  O
  O8       1.0000 0.91617  0.26316  0.67917  Biso   1.000  O
  O9       1.0000 0.91617  0.73684  0.32083  Biso   1.000  O
  O10      1.0000 0.08383  0.26316  0.32083  Biso   1.000  O
  O11      1.0000 0.67917  0.08383  0.73684  Biso   1.000  O
  O12      1.0000 0.67917  0.91617  0.26316  Biso   1.000  O
  O13      1.0000 0.32083  0.91617  0.73684  Biso   1.000  O
  O14      1.0000 0.32083  0.08383  0.26316  Biso   1.000  O
  O15      1.0000 0.73684  0.67917  0.08383  Biso   1.000  O
  O16      1.0000 0.26316  0.67917  0.91617  Biso   1.000  O
  O17      1.0000 0.73684  0.32083  0.91617  Biso   1.000  O
  O18      1.0000 0.26316  0.32083  0.08383  Biso   1.000  O
  O19      1.0000 0.75294  0.00000  0.00000  Biso   1.000  O
  O20      1.0000 0.24706  0.00000  0.00000  Biso   1.000  O
  O21      1.0000 0.00000  0.75294  0.00000  Biso   1.000  O
  O22      1.0000 0.00000  0.24706  0.00000  Biso   1.000  O
  O23      1.0000 0.00000  0.00000  0.75294  Biso   1.000  O
  O24      1.0000 0.00000  0.00000  0.24706  Biso   1.000  O
  Ir1      1.0000 0.14532  0.91666  0.66438  Biso   1.000  Ir
  Ir2      1.0000 0.85467  0.08334  0.66438  Biso   1.000  Ir
  Ir3      1.0000 0.85467  0.91666  0.33562  Biso   1.000  Ir
  Ir4      1.0000 0.14532  0.08334  0.33562  Biso   1.000  Ir
  Ir5      1.0000 0.66438  0.14532  0.91666  Biso   1.000  Ir
  Ir6      1.0000 0.66438  0.85467  0.08334  Biso   1.000  Ir
  Ir7      1.0000 0.33562  0.85467  0.91666  Biso   1.000  Ir
  Ir8      1.0000 0.33562  0.14532  0.08334  Biso   1.000  Ir
  Ir9      1.0000 0.91666  0.66438  0.14532  Biso   1.000  Ir
  Ir10     1.0000 0.08334  0.66438  0.85467  Biso   1.000  Ir
  Ir11     1.0000 0.91666  0.33562  0.85467  Biso   1.000  Ir
  Ir12     1.0000 0.08334  0.33562  0.14532  Biso   1.000  Ir
