data_image0
_cell_length_a       10.5118
_cell_length_b       10.0451
_cell_length_c       7.29907
_cell_angle_alpha    90
_cell_angle_beta     99.9722
_cell_angle_gamma    90

_symmetry_space_group_name_H-M    "P 1"
_symmetry_int_tables_number       1

loop_
  _symmetry_equiv_pos_as_xyz
  'x, y, z'

loop_
  _atom_site_label
  _atom_site_occupancy
  _atom_site_fract_x
  _atom_site_fract_y
  _atom_site_fract_z
  _atom_site_thermal_displace_type
  _atom_site_B_iso_or_equiv
  _atom_site_type_symbol
  Ir1      1.0000 0.91659  0.68649  0.92343  Biso   1.000  Ir
  Ir2      1.0000 0.08341  0.68649  0.57657  Biso   1.000  Ir
  Ir3      1.0000 0.08341  0.31351  0.07657  Biso   1.000  Ir
  Ir4      1.0000 0.91659  0.31351  0.42343  Biso   1.000  Ir
  Ir5      1.0000 0.67029  0.43939  0.92671  Biso   1.000  Ir
  Ir6      1.0000 0.32971  0.43939  0.57329  Biso   1.000  Ir
  Ir7      1.0000 0.32971  0.56061  0.07329  Biso   1.000  Ir
  Ir8      1.0000 0.67029  0.56061  0.42671  Biso   1.000  Ir
  Ir9      1.0000 0.41659  0.18649  0.92343  Biso   1.000  Ir
  Ir10     1.0000 0.58341  0.18649  0.57657  Biso   1.000  Ir
  Ir11     1.0000 0.58341  0.81351  0.07657  Biso   1.000  Ir
  Ir12     1.0000 0.41659  0.81351  0.42343  Biso   1.000  Ir
  Ir13     1.0000 0.17029  0.93940  0.92671  Biso   1.000  Ir
  Ir14     1.0000 0.82971  0.93940  0.57329  Biso   1.000  Ir
  Ir15     1.0000 0.82971  0.06061  0.07329  Biso   1.000  Ir
  Ir16     1.0000 0.17029  0.06061  0.42671  Biso   1.000  Ir
  O1       1.0000 0.00000  0.94298  0.25000  Biso   1.000  O
  O2       1.0000 0.00000  0.05702  0.75000  Biso   1.000  O
  O3       1.0000 0.00000  0.43211  0.25000  Biso   1.000  O
  O4       1.0000 0.00000  0.56789  0.75000  Biso   1.000  O
  O5       1.0000 0.74532  0.31232  0.75279  Biso   1.000  O
  O6       1.0000 0.25468  0.31232  0.74721  Biso   1.000  O
  O7       1.0000 0.25468  0.68768  0.24721  Biso   1.000  O
  O8       1.0000 0.74532  0.68768  0.25279  Biso   1.000  O
  O9       1.0000 0.16615  0.43611  0.91680  Biso   1.000  O
  O10      1.0000 0.83385  0.43611  0.58320  Biso   1.000  O
  O11      1.0000 0.83385  0.56389  0.08320  Biso   1.000  O
  O12      1.0000 0.16615  0.56389  0.41680  Biso   1.000  O
  O13      1.0000 0.91929  0.18800  0.92119  Biso   1.000  O
  O14      1.0000 0.08071  0.18800  0.57881  Biso   1.000  O
  O15      1.0000 0.08071  0.81200  0.07881  Biso   1.000  O
  O16      1.0000 0.91929  0.81200  0.42119  Biso   1.000  O
  O17      1.0000 0.50000  0.44298  0.25000  Biso   1.000  O
  O18      1.0000 0.50000  0.55702  0.75000  Biso   1.000  O
  O19      1.0000 0.50000  0.93211  0.25000  Biso   1.000  O
  O20      1.0000 0.50000  0.06789  0.75000  Biso   1.000  O
  O21      1.0000 0.24532  0.81232  0.75279  Biso   1.000  O
  O22      1.0000 0.75468  0.81232  0.74721  Biso   1.000  O
  O23      1.0000 0.75468  0.18768  0.24721  Biso   1.000  O
  O24      1.0000 0.24532  0.18768  0.25279  Biso   1.000  O
  O25      1.0000 0.66615  0.93611  0.91680  Biso   1.000  O
  O26      1.0000 0.33385  0.93611  0.58320  Biso   1.000  O
  O27      1.0000 0.33385  0.06389  0.08320  Biso   1.000  O
  O28      1.0000 0.66615  0.06389  0.41680  Biso   1.000  O
  O29      1.0000 0.41929  0.68800  0.92119  Biso   1.000  O
  O30      1.0000 0.58071  0.68800  0.57881  Biso   1.000  O
  O31      1.0000 0.58071  0.31200  0.07881  Biso   1.000  O
  O32      1.0000 0.41929  0.31200  0.42119  Biso   1.000  O
