data_image0
_cell_length_a       8.44033
_cell_length_b       8.44033
_cell_length_c       7.83516
_cell_angle_alpha    90
_cell_angle_beta     90
_cell_angle_gamma    90

_symmetry_space_group_name_H-M    "P 1"
_symmetry_int_tables_number       1

loop_
  _symmetry_equiv_pos_as_xyz
  'x, y, z'

loop_
  _atom_site_label
  _atom_site_occupancy
  _atom_site_fract_x
  _atom_site_fract_y
  _atom_site_fract_z
  _atom_site_thermal_displace_type
  _atom_site_B_iso_or_equiv
  _atom_site_type_symbol
  O1       1.0000 0.80835  0.00000  0.14367  Biso   1.000  O
  O2       1.0000 0.19165  0.00000  0.14367  Biso   1.000  O
  O3       1.0000 0.00000  0.19165  0.85633  Biso   1.000  O
  O4       1.0000 0.00000  0.80835  0.85633  Biso   1.000  O
  O5       1.0000 0.80853  0.80853  0.50000  Biso   1.000  O
  O6       1.0000 0.19147  0.19147  0.50000  Biso   1.000  O
  O7       1.0000 0.80853  0.19147  0.50000  Biso   1.000  O
  O8       1.0000 0.19147  0.80853  0.50000  Biso   1.000  O
  O9       1.0000 0.00000  0.50000  0.61883  Biso   1.000  O
  O10      1.0000 0.50000  0.00000  0.38117  Biso   1.000  O
  Ir1      1.0000 0.73049  0.00000  0.38122  Biso   1.000  Ir
  Ir2      1.0000 0.26951  0.00000  0.38122  Biso   1.000  Ir
  Ir3      1.0000 0.00000  0.26951  0.61878  Biso   1.000  Ir
  Ir4      1.0000 0.00000  0.73049  0.61878  Biso   1.000  Ir
  Ir5      1.0000 0.00000  0.00000  0.00000  Biso   1.000  Ir
