data_image0
_cell_length_a       12.88
_cell_length_b       12.88
_cell_length_c       5.69251
_cell_angle_alpha    90
_cell_angle_beta     90
_cell_angle_gamma    90

_symmetry_space_group_name_H-M    "P 1"
_symmetry_int_tables_number       1

loop_
  _symmetry_equiv_pos_as_xyz
  'x, y, z'

loop_
  _atom_site_label
  _atom_site_occupancy
  _atom_site_fract_x
  _atom_site_fract_y
  _atom_site_fract_z
  _atom_site_thermal_displace_type
  _atom_site_B_iso_or_equiv
  _atom_site_type_symbol
  O1       1.0000 0.79081  0.83670  0.74083  Biso   1.000  O
  O2       1.0000 0.20919  0.16330  0.74083  Biso   1.000  O
  O3       1.0000 0.83670  0.20919  0.25917  Biso   1.000  O
  O4       1.0000 0.16330  0.79081  0.25917  Biso   1.000  O
  O5       1.0000 0.70919  0.33670  0.75917  Biso   1.000  O
  O6       1.0000 0.29081  0.66330  0.75917  Biso   1.000  O
  O7       1.0000 0.66330  0.70919  0.24083  Biso   1.000  O
  O8       1.0000 0.33670  0.29081  0.24083  Biso   1.000  O
  O9       1.0000 0.53788  0.63004  0.68255  Biso   1.000  O
  O10      1.0000 0.46212  0.36996  0.68255  Biso   1.000  O
  O11      1.0000 0.63004  0.46212  0.31745  Biso   1.000  O
  O12      1.0000 0.36996  0.53788  0.31745  Biso   1.000  O
  O13      1.0000 0.96212  0.13004  0.81745  Biso   1.000  O
  O14      1.0000 0.03788  0.86996  0.81745  Biso   1.000  O
  O15      1.0000 0.86996  0.96212  0.18255  Biso   1.000  O
  O16      1.0000 0.13004  0.03788  0.18255  Biso   1.000  O
  O17      1.0000 0.78216  0.57490  0.67304  Biso   1.000  O
  O18      1.0000 0.21784  0.42510  0.67304  Biso   1.000  O
  O19      1.0000 0.57490  0.21784  0.32696  Biso   1.000  O
  O20      1.0000 0.42510  0.78216  0.32696  Biso   1.000  O
  O21      1.0000 0.71784  0.07490  0.82696  Biso   1.000  O
  O22      1.0000 0.28216  0.92510  0.82696  Biso   1.000  O
  O23      1.0000 0.92510  0.71784  0.17304  Biso   1.000  O
  O24      1.0000 0.07490  0.28216  0.17304  Biso   1.000  O
  O25      1.0000 0.05573  0.62162  0.60818  Biso   1.000  O
  O26      1.0000 0.94427  0.37838  0.60818  Biso   1.000  O
  O27      1.0000 0.62162  0.94427  0.39182  Biso   1.000  O
  O28      1.0000 0.37838  0.05573  0.39182  Biso   1.000  O
  O29      1.0000 0.44426  0.12162  0.89182  Biso   1.000  O
  O30      1.0000 0.55574  0.87838  0.89182  Biso   1.000  O
  O31      1.0000 0.87838  0.44426  0.10818  Biso   1.000  O
  O32      1.0000 0.12162  0.55574  0.10818  Biso   1.000  O
  Ir1      1.0000 0.67363  0.93730  0.71310  Biso   1.000  Ir
  Ir2      1.0000 0.32638  0.06270  0.71310  Biso   1.000  Ir
  Ir3      1.0000 0.93730  0.32638  0.28690  Biso   1.000  Ir
  Ir4      1.0000 0.06270  0.67363  0.28690  Biso   1.000  Ir
  Ir5      1.0000 0.82637  0.43730  0.78690  Biso   1.000  Ir
  Ir6      1.0000 0.17363  0.56270  0.78690  Biso   1.000  Ir
  Ir7      1.0000 0.56270  0.82637  0.21310  Biso   1.000  Ir
  Ir8      1.0000 0.43730  0.17363  0.21310  Biso   1.000  Ir
  Ir9      1.0000 0.40287  0.65815  0.52489  Biso   1.000  Ir
  Ir10     1.0000 0.59713  0.34185  0.52489  Biso   1.000  Ir
  Ir11     1.0000 0.65815  0.59713  0.47512  Biso   1.000  Ir
  Ir12     1.0000 0.34185  0.40287  0.47512  Biso   1.000  Ir
  Ir13     1.0000 0.09713  0.15815  0.97512  Biso   1.000  Ir
  Ir14     1.0000 0.90287  0.84185  0.97512  Biso   1.000  Ir
  Ir15     1.0000 0.84185  0.09713  0.02489  Biso   1.000  Ir
  Ir16     1.0000 0.15815  0.90287  0.02489  Biso   1.000  Ir
