data_image0
_cell_length_a       10.178
_cell_length_b       10.178
_cell_length_c       12.2271
_cell_angle_alpha    90
_cell_angle_beta     90
_cell_angle_gamma    90

_symmetry_space_group_name_H-M    "P 1"
_symmetry_int_tables_number       1

loop_
  _symmetry_equiv_pos_as_xyz
  'x, y, z'

loop_
  _atom_site_label
  _atom_site_occupancy
  _atom_site_fract_x
  _atom_site_fract_y
  _atom_site_fract_z
  _atom_site_thermal_displace_type
  _atom_site_B_iso_or_equiv
  _atom_site_type_symbol
  Ir1      1.0000 0.74141  0.25000  0.12500  Biso   1.000  Ir
  Ir2      1.0000 0.75859  0.25000  0.62500  Biso   1.000  Ir
  Ir3      1.0000 0.25000  0.24141  0.37500  Biso   1.000  Ir
  Ir4      1.0000 0.25000  0.25859  0.87500  Biso   1.000  Ir
  Ir5      1.0000 0.50000  0.00000  0.56480  Biso   1.000  Ir
  Ir6      1.0000 0.50000  0.00000  0.93520  Biso   1.000  Ir
  Ir7      1.0000 0.50000  0.50000  0.68520  Biso   1.000  Ir
  Ir8      1.0000 0.50000  0.50000  0.31480  Biso   1.000  Ir
  Ir9      1.0000 0.24141  0.75000  0.62500  Biso   1.000  Ir
  Ir10     1.0000 0.25859  0.75000  0.12500  Biso   1.000  Ir
  Ir11     1.0000 0.75000  0.74141  0.87500  Biso   1.000  Ir
  Ir12     1.0000 0.75000  0.75859  0.37500  Biso   1.000  Ir
  Ir13     1.0000 0.00000  0.50000  0.06480  Biso   1.000  Ir
  Ir14     1.0000 0.00000  0.50000  0.43520  Biso   1.000  Ir
  Ir15     1.0000 0.00000  0.00000  0.18520  Biso   1.000  Ir
  Ir16     1.0000 0.00000  0.00000  0.81480  Biso   1.000  Ir
  O1       1.0000 0.61701  0.86214  0.15409  Biso   1.000  O
  O2       1.0000 0.88299  0.63786  0.65409  Biso   1.000  O
  O3       1.0000 0.63786  0.11701  0.34591  Biso   1.000  O
  O4       1.0000 0.86214  0.38299  0.84591  Biso   1.000  O
  O5       1.0000 0.88299  0.86214  0.59591  Biso   1.000  O
  O6       1.0000 0.11701  0.13786  0.59591  Biso   1.000  O
  O7       1.0000 0.86214  0.11701  0.40409  Biso   1.000  O
  O8       1.0000 0.13786  0.88299  0.40409  Biso   1.000  O
  O9       1.0000 0.51798  0.23073  0.79126  Biso   1.000  O
  O10      1.0000 0.98202  0.26927  0.29126  Biso   1.000  O
  O11      1.0000 0.76927  0.51798  0.20874  Biso   1.000  O
  O12      1.0000 0.73073  0.98202  0.70874  Biso   1.000  O
  O13      1.0000 0.48202  0.73073  0.45874  Biso   1.000  O
  O14      1.0000 0.51798  0.26927  0.45874  Biso   1.000  O
  O15      1.0000 0.73073  0.51798  0.54126  Biso   1.000  O
  O16      1.0000 0.26927  0.48202  0.54126  Biso   1.000  O
  O17      1.0000 0.11701  0.36214  0.65409  Biso   1.000  O
  O18      1.0000 0.38299  0.13786  0.15409  Biso   1.000  O
  O19      1.0000 0.13786  0.61701  0.84591  Biso   1.000  O
  O20      1.0000 0.36214  0.88299  0.34591  Biso   1.000  O
  O21      1.0000 0.38299  0.36214  0.09591  Biso   1.000  O
  O22      1.0000 0.61701  0.63786  0.09591  Biso   1.000  O
  O23      1.0000 0.36214  0.61701  0.90409  Biso   1.000  O
  O24      1.0000 0.63786  0.38299  0.90409  Biso   1.000  O
  O25      1.0000 0.01798  0.73073  0.29126  Biso   1.000  O
  O26      1.0000 0.48202  0.76927  0.79126  Biso   1.000  O
  O27      1.0000 0.26927  0.01798  0.70874  Biso   1.000  O
  O28      1.0000 0.23073  0.48202  0.20874  Biso   1.000  O
  O29      1.0000 0.98202  0.23073  0.95874  Biso   1.000  O
  O30      1.0000 0.01798  0.76927  0.95874  Biso   1.000  O
  O31      1.0000 0.23073  0.01798  0.04126  Biso   1.000  O
  O32      1.0000 0.76927  0.98202  0.04126  Biso   1.000  O
