data_image0
_cell_length_a       5.26291
_cell_length_b       5.26291
_cell_length_c       5.26291
_cell_angle_alpha    90
_cell_angle_beta     90
_cell_angle_gamma    90

_symmetry_space_group_name_H-M    "P 1"
_symmetry_int_tables_number       1

loop_
  _symmetry_equiv_pos_as_xyz
  'x, y, z'

loop_
  _atom_site_label
  _atom_site_occupancy
  _atom_site_fract_x
  _atom_site_fract_y
  _atom_site_fract_z
  _atom_site_thermal_displace_type
  _atom_site_B_iso_or_equiv
  _atom_site_type_symbol
  O1       1.0000 0.34355  0.34355  0.34355  Biso   1.000  O
  O2       1.0000 0.15645  0.65645  0.84355  Biso   1.000  O
  O3       1.0000 0.65645  0.84355  0.15645  Biso   1.000  O
  O4       1.0000 0.84355  0.15645  0.65645  Biso   1.000  O
  O5       1.0000 0.65701  0.65701  0.65701  Biso   1.000  O
  O6       1.0000 0.84299  0.34299  0.15701  Biso   1.000  O
  O7       1.0000 0.34299  0.15701  0.84299  Biso   1.000  O
  O8       1.0000 0.15701  0.84299  0.34299  Biso   1.000  O
  Ir1      1.0000 0.99972  0.99972  0.99972  Biso   1.000  Ir
  Ir2      1.0000 0.50028  0.00028  0.49972  Biso   1.000  Ir
  Ir3      1.0000 0.00028  0.49972  0.50028  Biso   1.000  Ir
  Ir4      1.0000 0.49972  0.50028  0.00028  Biso   1.000  Ir
