data_image0
_cell_length_a       15.7855
_cell_length_b       10.9499
_cell_length_c       8.62303
_cell_angle_alpha    90
_cell_angle_beta     97.2737
_cell_angle_gamma    90

_symmetry_space_group_name_H-M    "P 1"
_symmetry_int_tables_number       1

loop_
  _symmetry_equiv_pos_as_xyz
  'x, y, z'

loop_
  _atom_site_label
  _atom_site_occupancy
  _atom_site_fract_x
  _atom_site_fract_y
  _atom_site_fract_z
  _atom_site_thermal_displace_type
  _atom_site_B_iso_or_equiv
  _atom_site_type_symbol
  Ir1      1.0000 0.50000  0.50000  0.00000  Biso   1.000  Ir
  Ir2      1.0000 0.00000  0.30488  0.00000  Biso   1.000  Ir
  Ir3      1.0000 0.00000  0.69512  0.00000  Biso   1.000  Ir
  Ir4      1.0000 0.86041  0.16163  0.71282  Biso   1.000  Ir
  Ir5      1.0000 0.13959  0.16163  0.28718  Biso   1.000  Ir
  Ir6      1.0000 0.13959  0.83837  0.28718  Biso   1.000  Ir
  Ir7      1.0000 0.86041  0.83837  0.71282  Biso   1.000  Ir
  Ir8      1.0000 0.86358  0.50000  0.71120  Biso   1.000  Ir
  Ir9      1.0000 0.13642  0.50000  0.28880  Biso   1.000  Ir
  Ir10     1.0000 0.00000  0.00000  0.00000  Biso   1.000  Ir
  Ir11     1.0000 0.50000  0.80488  0.00000  Biso   1.000  Ir
  Ir12     1.0000 0.50000  0.19512  0.00000  Biso   1.000  Ir
  Ir13     1.0000 0.36041  0.66163  0.71282  Biso   1.000  Ir
  Ir14     1.0000 0.63959  0.66163  0.28718  Biso   1.000  Ir
  Ir15     1.0000 0.63959  0.33837  0.28718  Biso   1.000  Ir
  Ir16     1.0000 0.36041  0.33837  0.71282  Biso   1.000  Ir
  Ir17     1.0000 0.36358  0.00000  0.71120  Biso   1.000  Ir
  Ir18     1.0000 0.63642  0.00000  0.28880  Biso   1.000  Ir
  O1       1.0000 0.86608  0.50000  0.99032  Biso   1.000  O
  O2       1.0000 0.13392  0.50000  0.00968  Biso   1.000  O
  O3       1.0000 0.84782  0.16151  0.98828  Biso   1.000  O
  O4       1.0000 0.15218  0.16151  0.01172  Biso   1.000  O
  O5       1.0000 0.15218  0.83849  0.01172  Biso   1.000  O
  O6       1.0000 0.84782  0.83849  0.98828  Biso   1.000  O
  O7       1.0000 0.99239  0.32894  0.69352  Biso   1.000  O
  O8       1.0000 0.00761  0.32894  0.30647  Biso   1.000  O
  O9       1.0000 0.00761  0.67106  0.30647  Biso   1.000  O
  O10      1.0000 0.99239  0.67106  0.69352  Biso   1.000  O
  O11      1.0000 0.49358  0.50000  0.69176  Biso   1.000  O
  O12      1.0000 0.50642  0.50000  0.30823  Biso   1.000  O
  O13      1.0000 0.20416  0.50000  0.61935  Biso   1.000  O
  O14      1.0000 0.79584  0.50000  0.38065  Biso   1.000  O
  O15      1.0000 0.70812  0.33383  0.61885  Biso   1.000  O
  O16      1.0000 0.29187  0.33383  0.38115  Biso   1.000  O
  O17      1.0000 0.29187  0.66617  0.38115  Biso   1.000  O
  O18      1.0000 0.70812  0.66617  0.61885  Biso   1.000  O
  O19      1.0000 0.36608  0.00000  0.99032  Biso   1.000  O
  O20      1.0000 0.63392  0.00000  0.00968  Biso   1.000  O
  O21      1.0000 0.34782  0.66151  0.98828  Biso   1.000  O
  O22      1.0000 0.65218  0.66151  0.01172  Biso   1.000  O
  O23      1.0000 0.65218  0.33849  0.01172  Biso   1.000  O
  O24      1.0000 0.34782  0.33849  0.98828  Biso   1.000  O
  O25      1.0000 0.49239  0.82894  0.69352  Biso   1.000  O
  O26      1.0000 0.50760  0.82894  0.30647  Biso   1.000  O
  O27      1.0000 0.50760  0.17106  0.30647  Biso   1.000  O
  O28      1.0000 0.49239  0.17106  0.69352  Biso   1.000  O
  O29      1.0000 0.99358  0.00000  0.69176  Biso   1.000  O
  O30      1.0000 0.00642  0.00000  0.30823  Biso   1.000  O
  O31      1.0000 0.70416  0.00000  0.61935  Biso   1.000  O
  O32      1.0000 0.29584  0.00000  0.38065  Biso   1.000  O
  O33      1.0000 0.20812  0.83383  0.61885  Biso   1.000  O
  O34      1.0000 0.79187  0.83383  0.38115  Biso   1.000  O
  O35      1.0000 0.79187  0.16617  0.38115  Biso   1.000  O
  O36      1.0000 0.20812  0.16617  0.61885  Biso   1.000  O
