data_image0
_cell_length_a       22.0249
_cell_length_b       22.0249
_cell_length_c       5.16481
_cell_angle_alpha    90
_cell_angle_beta     90
_cell_angle_gamma    120

_symmetry_space_group_name_H-M    "P 1"
_symmetry_int_tables_number       1

loop_
  _symmetry_equiv_pos_as_xyz
  'x, y, z'

loop_
  _atom_site_label
  _atom_site_occupancy
  _atom_site_fract_x
  _atom_site_fract_y
  _atom_site_fract_z
  _atom_site_thermal_displace_type
  _atom_site_B_iso_or_equiv
  _atom_site_type_symbol
  O1       1.0000 0.25761  0.25761  0.50000  Biso   1.000  O
  O2       1.0000 0.40906  0.33333  0.83333  Biso   1.000  O
  O3       1.0000 0.33333  0.40906  0.16667  Biso   1.000  O
  O4       1.0000 0.40927  0.07594  0.33333  Biso   1.000  O
  O5       1.0000 0.25739  0.00000  0.00000  Biso   1.000  O
  O6       1.0000 0.33333  0.92406  0.66667  Biso   1.000  O
  O7       1.0000 0.33273  0.16622  0.41679  Biso   1.000  O
  O8       1.0000 0.16712  0.83318  0.08346  Biso   1.000  O
  O9       1.0000 0.50015  0.00060  0.75013  Biso   1.000  O
  O10      1.0000 0.33394  0.16682  0.91654  Biso   1.000  O
  O11      1.0000 0.49955  0.99940  0.24987  Biso   1.000  O
  O12      1.0000 0.16651  0.83378  0.58321  Biso   1.000  O
  O13      1.0000 0.92427  0.59094  0.83333  Biso   1.000  O
  O14      1.0000 0.07573  0.66667  0.16667  Biso   1.000  O
  O15      1.0000 0.00000  0.74239  0.50000  Biso   1.000  O
  O16      1.0000 0.07594  0.40927  0.66667  Biso   1.000  O
  O17      1.0000 0.92406  0.33333  0.33333  Biso   1.000  O
  O18      1.0000 0.00000  0.25739  0.00000  Biso   1.000  O
  O19      1.0000 0.99940  0.49955  0.75013  Biso   1.000  O
  O20      1.0000 0.83378  0.16651  0.41679  Biso   1.000  O
  O21      1.0000 0.16682  0.33394  0.08346  Biso   1.000  O
  O22      1.0000 0.00060  0.50015  0.24987  Biso   1.000  O
  O23      1.0000 0.16622  0.33273  0.58321  Biso   1.000  O
  O24      1.0000 0.83318  0.16712  0.91654  Biso   1.000  O
  O25      1.0000 0.59094  0.92427  0.16667  Biso   1.000  O
  O26      1.0000 0.74239  0.00000  0.50000  Biso   1.000  O
  O27      1.0000 0.66667  0.07573  0.83333  Biso   1.000  O
  O28      1.0000 0.74261  0.74261  0.00000  Biso   1.000  O
  O29      1.0000 0.59072  0.66667  0.66667  Biso   1.000  O
  O30      1.0000 0.66667  0.59072  0.33333  Biso   1.000  O
  O31      1.0000 0.66606  0.83288  0.08346  Biso   1.000  O
  O32      1.0000 0.50045  0.49985  0.75013  Biso   1.000  O
  O33      1.0000 0.83349  0.66727  0.41679  Biso   1.000  O
  O34      1.0000 0.66727  0.83349  0.58321  Biso   1.000  O
  O35      1.0000 0.83288  0.66606  0.91654  Biso   1.000  O
  O36      1.0000 0.49985  0.50045  0.24987  Biso   1.000  O
  Ir1      1.0000 0.23420  0.90087  0.83333  Biso   1.000  Ir
  Ir2      1.0000 0.43247  0.00000  0.50000  Biso   1.000  Ir
  Ir3      1.0000 0.33333  0.09913  0.16667  Biso   1.000  Ir
  Ir4      1.0000 0.43259  0.43259  0.00000  Biso   1.000  Ir
  Ir5      1.0000 0.23407  0.33333  0.33333  Biso   1.000  Ir
  Ir6      1.0000 0.33333  0.23407  0.66667  Biso   1.000  Ir
  Ir7      1.0000 0.90087  0.23420  0.16667  Biso   1.000  Ir
  Ir8      1.0000 0.09913  0.33333  0.83333  Biso   1.000  Ir
  Ir9      1.0000 0.00000  0.43247  0.50000  Biso   1.000  Ir
  Ir10     1.0000 0.09926  0.76593  0.33333  Biso   1.000  Ir
  Ir11     1.0000 0.90074  0.66667  0.66667  Biso   1.000  Ir
  Ir12     1.0000 0.00000  0.56741  0.00000  Biso   1.000  Ir
  Ir13     1.0000 0.56753  0.56753  0.50000  Biso   1.000  Ir
  Ir14     1.0000 0.76580  0.66667  0.16667  Biso   1.000  Ir
  Ir15     1.0000 0.66667  0.76580  0.83333  Biso   1.000  Ir
  Ir16     1.0000 0.76593  0.09926  0.66667  Biso   1.000  Ir
  Ir17     1.0000 0.56741  0.00000  0.00000  Biso   1.000  Ir
  Ir18     1.0000 0.66667  0.90074  0.33333  Biso   1.000  Ir
