data_image0
_cell_length_a       19.5284
_cell_length_b       11.2312
_cell_length_c       10.4494
_cell_angle_alpha    90
_cell_angle_beta     90
_cell_angle_gamma    90

_symmetry_space_group_name_H-M    "P 1"
_symmetry_int_tables_number       1

loop_
  _symmetry_equiv_pos_as_xyz
  'x, y, z'

loop_
  _atom_site_label
  _atom_site_occupancy
  _atom_site_fract_x
  _atom_site_fract_y
  _atom_site_fract_z
  _atom_site_thermal_displace_type
  _atom_site_B_iso_or_equiv
  _atom_site_type_symbol
  O1       1.0000 0.41549  0.25718  0.49932  Biso   1.000  O
  O2       1.0000 0.08451  0.24282  0.99932  Biso   1.000  O
  O3       1.0000 0.08451  0.75718  0.00068  Biso   1.000  O
  O4       1.0000 0.41549  0.74282  0.50068  Biso   1.000  O
  O5       1.0000 0.08451  0.24282  0.50068  Biso   1.000  O
  O6       1.0000 0.41549  0.25718  0.00068  Biso   1.000  O
  O7       1.0000 0.41549  0.74282  0.99932  Biso   1.000  O
  O8       1.0000 0.08451  0.75718  0.49932  Biso   1.000  O
  O9       1.0000 0.17497  0.00000  0.00000  Biso   1.000  O
  O10      1.0000 0.32503  0.50000  0.50000  Biso   1.000  O
  O11      1.0000 0.32503  0.50000  0.00000  Biso   1.000  O
  O12      1.0000 0.17497  0.00000  0.50000  Biso   1.000  O
  O13      1.0000 0.16962  0.16533  0.75000  Biso   1.000  O
  O14      1.0000 0.33038  0.33467  0.25000  Biso   1.000  O
  O15      1.0000 0.33038  0.66533  0.75000  Biso   1.000  O
  O16      1.0000 0.16962  0.83467  0.25000  Biso   1.000  O
  O17      1.0000 0.25000  0.75000  0.00000  Biso   1.000  O
  O18      1.0000 0.25000  0.75000  0.50000  Biso   1.000  O
  O19      1.0000 0.25000  0.25000  0.50000  Biso   1.000  O
  O20      1.0000 0.25000  0.25000  0.00000  Biso   1.000  O
  O21      1.0000 0.00000  0.83256  0.75000  Biso   1.000  O
  O22      1.0000 0.00000  0.16744  0.25000  Biso   1.000  O
  O23      1.0000 0.00000  0.00000  0.00000  Biso   1.000  O
  O24      1.0000 0.00000  0.00000  0.50000  Biso   1.000  O
  O25      1.0000 0.91549  0.75718  0.49932  Biso   1.000  O
  O26      1.0000 0.58451  0.74282  0.99932  Biso   1.000  O
  O27      1.0000 0.58451  0.25718  0.00068  Biso   1.000  O
  O28      1.0000 0.91549  0.24282  0.50068  Biso   1.000  O
  O29      1.0000 0.58451  0.74282  0.50068  Biso   1.000  O
  O30      1.0000 0.91549  0.75718  0.00068  Biso   1.000  O
  O31      1.0000 0.91549  0.24282  0.99932  Biso   1.000  O
  O32      1.0000 0.58451  0.25718  0.49932  Biso   1.000  O
  O33      1.0000 0.67497  0.50000  0.00000  Biso   1.000  O
  O34      1.0000 0.82503  0.00000  0.50000  Biso   1.000  O
  O35      1.0000 0.82503  0.00000  0.00000  Biso   1.000  O
  O36      1.0000 0.67497  0.50000  0.50000  Biso   1.000  O
  O37      1.0000 0.66963  0.66533  0.75000  Biso   1.000  O
  O38      1.0000 0.83037  0.83467  0.25000  Biso   1.000  O
  O39      1.0000 0.83037  0.16533  0.75000  Biso   1.000  O
  O40      1.0000 0.66963  0.33467  0.25000  Biso   1.000  O
  O41      1.0000 0.75000  0.25000  0.00000  Biso   1.000  O
  O42      1.0000 0.75000  0.25000  0.50000  Biso   1.000  O
  O43      1.0000 0.75000  0.75000  0.50000  Biso   1.000  O
  O44      1.0000 0.75000  0.75000  0.00000  Biso   1.000  O
  O45      1.0000 0.50000  0.33256  0.75000  Biso   1.000  O
  O46      1.0000 0.50000  0.66744  0.25000  Biso   1.000  O
  O47      1.0000 0.50000  0.50000  0.00000  Biso   1.000  O
  O48      1.0000 0.50000  0.50000  0.50000  Biso   1.000  O
  Ir1      1.0000 0.33028  0.33539  0.43714  Biso   1.000  Ir
  Ir2      1.0000 0.16972  0.16461  0.93714  Biso   1.000  Ir
  Ir3      1.0000 0.16972  0.83539  0.06286  Biso   1.000  Ir
  Ir4      1.0000 0.33028  0.66461  0.56286  Biso   1.000  Ir
  Ir5      1.0000 0.16972  0.16461  0.56286  Biso   1.000  Ir
  Ir6      1.0000 0.33028  0.33539  0.06286  Biso   1.000  Ir
  Ir7      1.0000 0.33028  0.66461  0.93714  Biso   1.000  Ir
  Ir8      1.0000 0.16972  0.83539  0.43714  Biso   1.000  Ir
  Ir9      1.0000 0.00000  0.16492  0.43703  Biso   1.000  Ir
  Ir10     1.0000 0.00000  0.83508  0.93704  Biso   1.000  Ir
  Ir11     1.0000 0.00000  0.16492  0.06297  Biso   1.000  Ir
  Ir12     1.0000 0.00000  0.83508  0.56297  Biso   1.000  Ir
  Ir13     1.0000 0.83028  0.83539  0.43714  Biso   1.000  Ir
  Ir14     1.0000 0.66972  0.66461  0.93714  Biso   1.000  Ir
  Ir15     1.0000 0.66972  0.33539  0.06286  Biso   1.000  Ir
  Ir16     1.0000 0.83028  0.16461  0.56286  Biso   1.000  Ir
  Ir17     1.0000 0.66972  0.66461  0.56286  Biso   1.000  Ir
  Ir18     1.0000 0.83028  0.83539  0.06286  Biso   1.000  Ir
  Ir19     1.0000 0.83028  0.16461  0.93714  Biso   1.000  Ir
  Ir20     1.0000 0.66972  0.33539  0.43714  Biso   1.000  Ir
  Ir21     1.0000 0.50000  0.66492  0.43703  Biso   1.000  Ir
  Ir22     1.0000 0.50000  0.33508  0.93704  Biso   1.000  Ir
  Ir23     1.0000 0.50000  0.66492  0.06297  Biso   1.000  Ir
  Ir24     1.0000 0.50000  0.33508  0.56297  Biso   1.000  Ir
