data_image0
_cell_length_a       8.2744
_cell_length_b       5.6206
_cell_length_c       11.7507
_cell_angle_alpha    90
_cell_angle_beta     90
_cell_angle_gamma    90

_symmetry_space_group_name_H-M    "P 1"
_symmetry_int_tables_number       1

loop_
  _symmetry_equiv_pos_as_xyz
  'x, y, z'

loop_
  _atom_site_label
  _atom_site_occupancy
  _atom_site_fract_x
  _atom_site_fract_y
  _atom_site_fract_z
  _atom_site_thermal_displace_type
  _atom_site_B_iso_or_equiv
  _atom_site_type_symbol
  O1       1.0000 0.00000  0.00000  0.00000  Biso   1.000  O
  O2       1.0000 0.50000  0.00000  0.00000  Biso   1.000  O
  O3       1.0000 0.00000  0.00000  0.50000  Biso   1.000  O
  O4       1.0000 0.50000  0.00000  0.50000  Biso   1.000  O
  O5       1.0000 0.00000  0.50000  0.00000  Biso   1.000  O
  O6       1.0000 0.50000  0.50000  0.00000  Biso   1.000  O
  O7       1.0000 0.00000  0.50000  0.50000  Biso   1.000  O
  O8       1.0000 0.50000  0.50000  0.50000  Biso   1.000  O
  O9       1.0000 0.25000  0.00000  0.66828  Biso   1.000  O
  O10      1.0000 0.75000  0.00000  0.83172  Biso   1.000  O
  O11      1.0000 0.75000  0.00000  0.33172  Biso   1.000  O
  O12      1.0000 0.25000  0.00000  0.16828  Biso   1.000  O
  O13      1.0000 0.00000  0.64200  0.25000  Biso   1.000  O
  O14      1.0000 0.50000  0.35800  0.25000  Biso   1.000  O
  O15      1.0000 0.00000  0.35800  0.75000  Biso   1.000  O
  O16      1.0000 0.50000  0.64200  0.75000  Biso   1.000  O
  Ir1      1.0000 0.42411  0.77018  0.60415  Biso   1.000  Ir
  Ir2      1.0000 0.07589  0.22982  0.60415  Biso   1.000  Ir
  Ir3      1.0000 0.57589  0.77018  0.89585  Biso   1.000  Ir
  Ir4      1.0000 0.92411  0.22982  0.89585  Biso   1.000  Ir
  Ir5      1.0000 0.57589  0.22982  0.39585  Biso   1.000  Ir
  Ir6      1.0000 0.92411  0.77018  0.39585  Biso   1.000  Ir
  Ir7      1.0000 0.42411  0.22982  0.10415  Biso   1.000  Ir
  Ir8      1.0000 0.07589  0.77018  0.10415  Biso   1.000  Ir
