data_image0
_cell_length_a       10.2293
_cell_length_b       3.32297
_cell_length_c       6.26162
_cell_angle_alpha    90
_cell_angle_beta     104.718
_cell_angle_gamma    90

_symmetry_space_group_name_H-M    "P 1"
_symmetry_int_tables_number       1

loop_
  _symmetry_equiv_pos_as_xyz
  'x, y, z'

loop_
  _atom_site_label
  _atom_site_occupancy
  _atom_site_fract_x
  _atom_site_fract_y
  _atom_site_fract_z
  _atom_site_thermal_displace_type
  _atom_site_B_iso_or_equiv
  _atom_site_type_symbol
  O1       1.0000 0.35389  0.50601  0.96786  Biso   1.000  O
  O2       1.0000 0.14611  0.00601  0.03214  Biso   1.000  O
  O3       1.0000 0.40247  0.00595  0.60646  Biso   1.000  O
  O4       1.0000 0.09753  0.50595  0.39354  Biso   1.000  O
  O5       1.0000 0.85389  0.00601  0.96786  Biso   1.000  O
  O6       1.0000 0.64611  0.50601  0.03214  Biso   1.000  O
  O7       1.0000 0.90247  0.50595  0.60646  Biso   1.000  O
  O8       1.0000 0.59753  0.00595  0.39354  Biso   1.000  O
  Ir1      1.0000 0.15358  0.00614  0.70155  Biso   1.000  Ir
  Ir2      1.0000 0.34641  0.50614  0.29845  Biso   1.000  Ir
  Ir3      1.0000 0.65358  0.50614  0.70155  Biso   1.000  Ir
  Ir4      1.0000 0.84642  0.00614  0.29845  Biso   1.000  Ir
