data_image0
_cell_length_a       6.44618
_cell_length_b       7.7376
_cell_length_c       6.1632
_cell_angle_alpha    90
_cell_angle_beta     90
_cell_angle_gamma    90

_symmetry_space_group_name_H-M    "P 1"
_symmetry_int_tables_number       1

loop_
  _symmetry_equiv_pos_as_xyz
  'x, y, z'

loop_
  _atom_site_label
  _atom_site_occupancy
  _atom_site_fract_x
  _atom_site_fract_y
  _atom_site_fract_z
  _atom_site_thermal_displace_type
  _atom_site_B_iso_or_equiv
  _atom_site_type_symbol
  O1       1.0000 0.07016  0.12262  0.00233  Biso   1.000  O
  O2       1.0000 0.92984  0.87738  0.50233  Biso   1.000  O
  O3       1.0000 0.57016  0.37738  0.00233  Biso   1.000  O
  O4       1.0000 0.42984  0.62262  0.50233  Biso   1.000  O
  O5       1.0000 0.41638  0.13086  0.49600  Biso   1.000  O
  O6       1.0000 0.58362  0.86914  0.99600  Biso   1.000  O
  O7       1.0000 0.91638  0.36914  0.49600  Biso   1.000  O
  O8       1.0000 0.08362  0.63086  0.99600  Biso   1.000  O
  Ir1      1.0000 0.08111  0.12426  0.37458  Biso   1.000  Ir
  Ir2      1.0000 0.91889  0.87574  0.87458  Biso   1.000  Ir
  Ir3      1.0000 0.58111  0.37574  0.37458  Biso   1.000  Ir
  Ir4      1.0000 0.41889  0.62426  0.87458  Biso   1.000  Ir
