data_image0
_cell_length_a       4.94039
_cell_length_b       3.22804
_cell_length_c       4.78912
_cell_angle_alpha    90
_cell_angle_beta     96.9907
_cell_angle_gamma    90

_symmetry_space_group_name_H-M    "P 1"
_symmetry_int_tables_number       1

loop_
  _symmetry_equiv_pos_as_xyz
  'x, y, z'

loop_
  _atom_site_label
  _atom_site_occupancy
  _atom_site_fract_x
  _atom_site_fract_y
  _atom_site_fract_z
  _atom_site_thermal_displace_type
  _atom_site_B_iso_or_equiv
  _atom_site_type_symbol
  Ir1      1.0000 0.98918  0.00000  0.51023  Biso   1.000  Ir
  Ir2      1.0000 0.48918  0.50000  0.51023  Biso   1.000  Ir
  O1       1.0000 0.25980  0.00000  0.24020  Biso   1.000  O
  O2       1.0000 0.72045  0.00000  0.78182  Biso   1.000  O
  O3       1.0000 0.75980  0.50000  0.24020  Biso   1.000  O
  O4       1.0000 0.22045  0.50000  0.78182  Biso   1.000  O
