data_image0
_cell_length_a       16.7224
_cell_length_b       21.4001
_cell_length_c       6.28387
_cell_angle_alpha    90
_cell_angle_beta     90
_cell_angle_gamma    90

_symmetry_space_group_name_H-M    "P 1"
_symmetry_int_tables_number       1

loop_
  _symmetry_equiv_pos_as_xyz
  'x, y, z'

loop_
  _atom_site_label
  _atom_site_occupancy
  _atom_site_fract_x
  _atom_site_fract_y
  _atom_site_fract_z
  _atom_site_thermal_displace_type
  _atom_site_B_iso_or_equiv
  _atom_site_type_symbol
  O1       1.0000 0.25000  0.25000  0.00000  Biso   1.000  O
  O2       1.0000 0.25000  0.25000  0.50000  Biso   1.000  O
  O3       1.0000 0.25000  0.75000  0.50000  Biso   1.000  O
  O4       1.0000 0.25000  0.75000  0.00000  Biso   1.000  O
  O5       1.0000 0.22819  0.12314  0.25000  Biso   1.000  O
  O6       1.0000 0.77181  0.87686  0.75000  Biso   1.000  O
  O7       1.0000 0.77181  0.12314  0.25000  Biso   1.000  O
  O8       1.0000 0.22819  0.87686  0.75000  Biso   1.000  O
  O9       1.0000 0.58969  0.72177  0.25000  Biso   1.000  O
  O10      1.0000 0.41031  0.27823  0.75000  Biso   1.000  O
  O11      1.0000 0.41031  0.72177  0.25000  Biso   1.000  O
  O12      1.0000 0.58969  0.27823  0.75000  Biso   1.000  O
  O13      1.0000 0.74352  0.00000  0.00000  Biso   1.000  O
  O14      1.0000 0.25648  0.00000  0.50000  Biso   1.000  O
  O15      1.0000 0.25648  0.00000  0.00000  Biso   1.000  O
  O16      1.0000 0.74352  0.00000  0.50000  Biso   1.000  O
  O17      1.0000 0.50000  0.16633  0.99876  Biso   1.000  O
  O18      1.0000 0.50000  0.83367  0.49876  Biso   1.000  O
  O19      1.0000 0.50000  0.16633  0.50124  Biso   1.000  O
  O20      1.0000 0.50000  0.83367  0.00124  Biso   1.000  O
  O21      1.0000 0.40553  0.05908  0.25000  Biso   1.000  O
  O22      1.0000 0.59447  0.94092  0.75000  Biso   1.000  O
  O23      1.0000 0.59447  0.05908  0.25000  Biso   1.000  O
  O24      1.0000 0.40553  0.94092  0.75000  Biso   1.000  O
  O25      1.0000 0.75000  0.75000  0.00000  Biso   1.000  O
  O26      1.0000 0.75000  0.75000  0.50000  Biso   1.000  O
  O27      1.0000 0.75000  0.25000  0.50000  Biso   1.000  O
  O28      1.0000 0.75000  0.25000  0.00000  Biso   1.000  O
  O29      1.0000 0.72819  0.62314  0.25000  Biso   1.000  O
  O30      1.0000 0.27181  0.37686  0.75000  Biso   1.000  O
  O31      1.0000 0.27181  0.62314  0.25000  Biso   1.000  O
  O32      1.0000 0.72819  0.37686  0.75000  Biso   1.000  O
  O33      1.0000 0.08969  0.22177  0.25000  Biso   1.000  O
  O34      1.0000 0.91031  0.77823  0.75000  Biso   1.000  O
  O35      1.0000 0.91031  0.22177  0.25000  Biso   1.000  O
  O36      1.0000 0.08969  0.77823  0.75000  Biso   1.000  O
  O37      1.0000 0.24352  0.50000  0.00000  Biso   1.000  O
  O38      1.0000 0.75648  0.50000  0.50000  Biso   1.000  O
  O39      1.0000 0.75648  0.50000  0.00000  Biso   1.000  O
  O40      1.0000 0.24352  0.50000  0.50000  Biso   1.000  O
  O41      1.0000 0.00000  0.66633  0.99876  Biso   1.000  O
  O42      1.0000 0.00000  0.33367  0.49876  Biso   1.000  O
  O43      1.0000 0.00000  0.66633  0.50124  Biso   1.000  O
  O44      1.0000 0.00000  0.33367  0.00124  Biso   1.000  O
  O45      1.0000 0.90553  0.55908  0.25000  Biso   1.000  O
  O46      1.0000 0.09447  0.44092  0.75000  Biso   1.000  O
  O47      1.0000 0.09447  0.55908  0.25000  Biso   1.000  O
  O48      1.0000 0.90553  0.44092  0.75000  Biso   1.000  O
  Ir1      1.0000 0.70466  0.71145  0.25000  Biso   1.000  Ir
  Ir2      1.0000 0.29534  0.28855  0.75000  Biso   1.000  Ir
  Ir3      1.0000 0.29534  0.71145  0.25000  Biso   1.000  Ir
  Ir4      1.0000 0.70466  0.28855  0.75000  Biso   1.000  Ir
  Ir5      1.0000 0.28929  0.04651  0.25000  Biso   1.000  Ir
  Ir6      1.0000 0.71071  0.95349  0.75000  Biso   1.000  Ir
  Ir7      1.0000 0.71071  0.04651  0.25000  Biso   1.000  Ir
  Ir8      1.0000 0.28929  0.95349  0.75000  Biso   1.000  Ir
  Ir9      1.0000 0.50000  0.77925  0.25000  Biso   1.000  Ir
  Ir10     1.0000 0.50000  0.22075  0.75000  Biso   1.000  Ir
  Ir11     1.0000 0.50000  0.11304  0.25000  Biso   1.000  Ir
  Ir12     1.0000 0.50000  0.88696  0.75000  Biso   1.000  Ir
  Ir13     1.0000 0.20466  0.21145  0.25000  Biso   1.000  Ir
  Ir14     1.0000 0.79534  0.78855  0.75000  Biso   1.000  Ir
  Ir15     1.0000 0.79534  0.21145  0.25000  Biso   1.000  Ir
  Ir16     1.0000 0.20466  0.78855  0.75000  Biso   1.000  Ir
  Ir17     1.0000 0.78929  0.54651  0.25000  Biso   1.000  Ir
  Ir18     1.0000 0.21071  0.45349  0.75000  Biso   1.000  Ir
  Ir19     1.0000 0.21071  0.54651  0.25000  Biso   1.000  Ir
  Ir20     1.0000 0.78929  0.45349  0.75000  Biso   1.000  Ir
  Ir21     1.0000 0.00000  0.27925  0.25000  Biso   1.000  Ir
  Ir22     1.0000 0.00000  0.72075  0.75000  Biso   1.000  Ir
  Ir23     1.0000 0.00000  0.61304  0.25000  Biso   1.000  Ir
  Ir24     1.0000 0.00000  0.38696  0.75000  Biso   1.000  Ir
