data_image0
_cell_length_a       5.42389
_cell_length_b       5.4239
_cell_length_c       154.435
_cell_angle_alpha    90
_cell_angle_beta     90
_cell_angle_gamma    120

_symmetry_space_group_name_H-M    "P 1"
_symmetry_int_tables_number       1

loop_
  _symmetry_equiv_pos_as_xyz
  'x, y, z'

loop_
  _atom_site_label
  _atom_site_occupancy
  _atom_site_fract_x
  _atom_site_fract_y
  _atom_site_fract_z
  _atom_site_thermal_displace_type
  _atom_site_B_iso_or_equiv
  _atom_site_type_symbol
  Ir1      1.0000 0.00000  0.00000  0.53572  Biso   1.000  Ir
  Ir2      1.0000 0.33333  0.66667  0.58333  Biso   1.000  Ir
  Ir3      1.0000 0.33333  0.66667  0.01190  Biso   1.000  Ir
  Ir4      1.0000 0.00000  0.00000  0.10714  Biso   1.000  Ir
  Ir5      1.0000 0.33333  0.66667  0.86905  Biso   1.000  Ir
  Ir6      1.0000 0.33333  0.66667  0.72619  Biso   1.000  Ir
  Ir7      1.0000 0.00000  0.00000  0.48810  Biso   1.000  Ir
  Ir8      1.0000 0.33333  0.66667  0.82143  Biso   1.000  Ir
  Ir9      1.0000 0.00000  0.00000  0.34524  Biso   1.000  Ir
  Ir10     1.0000 0.33333  0.66667  0.15477  Biso   1.000  Ir
  Ir11     1.0000 0.00000  0.00000  0.77381  Biso   1.000  Ir
  Ir12     1.0000 0.00000  0.00000  0.63096  Biso   1.000  Ir
  Ir13     1.0000 0.00000  0.00000  0.20238  Biso   1.000  Ir
  Ir14     1.0000 0.00000  0.00000  0.67857  Biso   1.000  Ir
  Ir15     1.0000 0.00000  0.00000  0.91666  Biso   1.000  Ir
  Ir16     1.0000 0.33333  0.66667  0.29762  Biso   1.000  Ir
  Ir17     1.0000 0.00000  0.00000  0.05952  Biso   1.000  Ir
  Ir18     1.0000 0.00000  0.00000  0.39286  Biso   1.000  Ir
  Ir19     1.0000 0.33333  0.66667  0.44048  Biso   1.000  Ir
  Ir20     1.0000 0.00000  0.00000  0.25000  Biso   1.000  Ir
  Ir21     1.0000 0.00000  0.00000  0.96429  Biso   1.000  Ir
  O1       1.0000 0.33333  0.66667  0.07072  Biso   1.000  O
  O2       1.0000 0.66667  0.33333  0.09595  Biso   1.000  O
  O3       1.0000 0.66667  0.33333  0.23880  Biso   1.000  O
  O4       1.0000 0.66667  0.33333  0.19119  Biso   1.000  O
  O5       1.0000 0.33333  0.66667  0.68976  Biso   1.000  O
  O6       1.0000 0.66667  0.33333  0.52452  Biso   1.000  O
  O7       1.0000 0.00000  0.00000  0.45166  Biso   1.000  O
  O8       1.0000 0.66667  0.33333  0.81024  Biso   1.000  O
  O9       1.0000 0.00000  0.00000  0.59451  Biso   1.000  O
  O10      1.0000 0.33333  0.66667  0.78499  Biso   1.000  O
  O11      1.0000 0.66667  0.33333  0.71501  Biso   1.000  O
  O12      1.0000 0.66667  0.33333  0.76262  Biso   1.000  O
  O13      1.0000 0.66667  0.33333  0.28642  Biso   1.000  O
  O14      1.0000 0.33333  0.66667  0.64214  Biso   1.000  O
  O15      1.0000 0.00000  0.00000  0.83262  Biso   1.000  O
  O16      1.0000 0.66667  0.33333  0.66740  Biso   1.000  O
  O17      1.0000 0.00000  0.00000  0.30880  Biso   1.000  O
  O18      1.0000 0.66667  0.33333  0.47690  Biso   1.000  O
  O19      1.0000 0.66667  0.33333  0.04835  Biso   1.000  O
  O20      1.0000 0.66667  0.33333  0.14358  Biso   1.000  O
  O21      1.0000 0.33333  0.66667  0.11833  Biso   1.000  O
  O22      1.0000 0.66667  0.33333  0.85785  Biso   1.000  O
  O23      1.0000 0.66667  0.33333  0.61977  Biso   1.000  O
  O24      1.0000 0.33333  0.66667  0.97547  Biso   1.000  O
  O25      1.0000 0.66667  0.33333  0.00072  Biso   1.000  O
  O26      1.0000 0.66667  0.33333  0.90547  Biso   1.000  O
  O27      1.0000 0.00000  0.00000  0.16597  Biso   1.000  O
  O28      1.0000 0.33333  0.66667  0.92785  Biso   1.000  O
  O29      1.0000 0.66667  0.33333  0.38168  Biso   1.000  O
  O30      1.0000 0.33333  0.66667  0.21357  Biso   1.000  O
  O31      1.0000 0.00000  0.00000  0.02309  Biso   1.000  O
  O32      1.0000 0.66667  0.33333  0.33406  Biso   1.000  O
  O33      1.0000 0.00000  0.00000  0.73738  Biso   1.000  O
  O34      1.0000 0.33333  0.66667  0.26118  Biso   1.000  O
  O35      1.0000 0.33333  0.66667  0.35643  Biso   1.000  O
  O36      1.0000 0.33333  0.66667  0.40405  Biso   1.000  O
  O37      1.0000 0.33333  0.66667  0.49929  Biso   1.000  O
  O38      1.0000 0.66667  0.33333  0.57214  Biso   1.000  O
  O39      1.0000 0.00000  0.00000  0.88023  Biso   1.000  O
  O40      1.0000 0.66667  0.33333  0.42929  Biso   1.000  O
  O41      1.0000 0.66667  0.33333  0.95310  Biso   1.000  O
  O42      1.0000 0.33333  0.66667  0.54690  Biso   1.000  O
