data_image0
_cell_length_a       4.82437
_cell_length_b       4.13498
_cell_length_c       5.11407
_cell_angle_alpha    90
_cell_angle_beta     113.053
_cell_angle_gamma    90

_symmetry_space_group_name_H-M    "P 1"
_symmetry_int_tables_number       1

loop_
  _symmetry_equiv_pos_as_xyz
  'x, y, z'

loop_
  _atom_site_label
  _atom_site_occupancy
  _atom_site_fract_x
  _atom_site_fract_y
  _atom_site_fract_z
  _atom_site_thermal_displace_type
  _atom_site_B_iso_or_equiv
  _atom_site_type_symbol
  Ir1      1.0000 0.99830  0.00000  0.99864  Biso   1.000  Ir
  Ir2      1.0000 0.33487  0.00000  0.66652  Biso   1.000  Ir
  O1       1.0000 0.66684  0.00000  0.33377  Biso   1.000  O
  O2       1.0000 0.30183  0.50000  0.96711  Biso   1.000  O
  O3       1.0000 0.66495  0.50000  0.69888  Biso   1.000  O
  O4       1.0000 0.03319  0.50000  0.33506  Biso   1.000  O
