data_image0
_cell_length_a       5.41747
_cell_length_b       5.41747
_cell_length_c       120.711
_cell_angle_alpha    90
_cell_angle_beta     90
_cell_angle_gamma    120

_symmetry_space_group_name_H-M    "P 1"
_symmetry_int_tables_number       1

loop_
  _symmetry_equiv_pos_as_xyz
  'x, y, z'

loop_
  _atom_site_label
  _atom_site_occupancy
  _atom_site_fract_x
  _atom_site_fract_y
  _atom_site_fract_z
  _atom_site_thermal_displace_type
  _atom_site_B_iso_or_equiv
  _atom_site_type_symbol
  Ir1      1.0000 0.00000  0.00000  0.51566  Biso   1.000  Ir
  Ir2      1.0000 0.66667  0.33333  0.89065  Biso   1.000  Ir
  Ir3      1.0000 0.33333  0.66667  0.82813  Biso   1.000  Ir
  Ir4      1.0000 0.33333  0.66667  0.45314  Biso   1.000  Ir
  Ir5      1.0000 0.00000  0.00000  0.64060  Biso   1.000  Ir
  Ir6      1.0000 0.00000  0.00000  0.14062  Biso   1.000  Ir
  Ir7      1.0000 0.33333  0.66667  0.20313  Biso   1.000  Ir
  Ir8      1.0000 0.33333  0.66667  0.95307  Biso   1.000  Ir
  Ir9      1.0000 0.00000  0.00000  0.01565  Biso   1.000  Ir
  Ir10     1.0000 0.33333  0.66667  0.76563  Biso   1.000  Ir
  Ir11     1.0000 0.33333  0.66667  0.57813  Biso   1.000  Ir
  Ir12     1.0000 0.33333  0.66667  0.07813  Biso   1.000  Ir
  Ir13     1.0000 0.00000  0.00000  0.39063  Biso   1.000  Ir
  Ir14     1.0000 0.00000  0.00000  0.26561  Biso   1.000  Ir
  Ir15     1.0000 0.33333  0.66667  0.32813  Biso   1.000  Ir
  Ir16     1.0000 0.66667  0.33333  0.70317  Biso   1.000  Ir
  O1       1.0000 0.66667  0.33333  0.96735  Biso   1.000  O
  O2       1.0000 0.66667  0.33333  0.65489  Biso   1.000  O
  O3       1.0000 0.33333  0.66667  0.90495  Biso   1.000  O
  O4       1.0000 0.66667  0.33333  0.77992  Biso   1.000  O
  O5       1.0000 0.00000  0.00000  0.75135  Biso   1.000  O
  O6       1.0000 0.33333  0.66667  0.62630  Biso   1.000  O
  O7       1.0000 0.00000  0.00000  0.56385  Biso   1.000  O
  O8       1.0000 0.33333  0.66667  0.25132  Biso   1.000  O
  O9       1.0000 0.00000  0.00000  0.81384  Biso   1.000  O
  O10      1.0000 0.00000  0.00000  0.06385  Biso   1.000  O
  O11      1.0000 0.66667  0.33333  0.46742  Biso   1.000  O
  O12      1.0000 0.66667  0.33333  0.21741  Biso   1.000  O
  O13      1.0000 0.00000  0.00000  0.43885  Biso   1.000  O
  O14      1.0000 0.33333  0.66667  0.71746  Biso   1.000  O
  O15      1.0000 0.66667  0.33333  0.34241  Biso   1.000  O
  O16      1.0000 0.00000  0.00000  0.18885  Biso   1.000  O
  O17      1.0000 0.33333  0.66667  0.12632  Biso   1.000  O
  O18      1.0000 0.66667  0.33333  0.40492  Biso   1.000  O
  O19      1.0000 0.66667  0.33333  0.15491  Biso   1.000  O
  O20      1.0000 0.66667  0.33333  0.09241  Biso   1.000  O
  O21      1.0000 0.66667  0.33333  0.27989  Biso   1.000  O
  O22      1.0000 0.66667  0.33333  0.02994  Biso   1.000  O
  O23      1.0000 0.00000  0.00000  0.87636  Biso   1.000  O
  O24      1.0000 0.00000  0.00000  0.31384  Biso   1.000  O
  O25      1.0000 0.00000  0.00000  0.93882  Biso   1.000  O
  O26      1.0000 0.33333  0.66667  0.50135  Biso   1.000  O
  O27      1.0000 0.66667  0.33333  0.84241  Biso   1.000  O
  O28      1.0000 0.66667  0.33333  0.59241  Biso   1.000  O
  O29      1.0000 0.33333  0.66667  0.00134  Biso   1.000  O
  O30      1.0000 0.00000  0.00000  0.68889  Biso   1.000  O
  O31      1.0000 0.33333  0.66667  0.37633  Biso   1.000  O
  O32      1.0000 0.66667  0.33333  0.52995  Biso   1.000  O
