data_image0
_cell_length_a       7.43859
_cell_length_b       4.29459
_cell_length_c       83.7513
_cell_angle_alpha    90
_cell_angle_beta     90.3266
_cell_angle_gamma    90

_symmetry_space_group_name_H-M    "P 1"
_symmetry_int_tables_number       1

loop_
  _symmetry_equiv_pos_as_xyz
  'x, y, z'

loop_
  _atom_site_label
  _atom_site_occupancy
  _atom_site_fract_x
  _atom_site_fract_y
  _atom_site_fract_z
  _atom_site_thermal_displace_type
  _atom_site_B_iso_or_equiv
  _atom_site_type_symbol
  Ir1      1.0000 0.16665  0.50000  0.02087  Biso   1.000  Ir
  Ir2      1.0000 0.33335  0.00000  0.10417  Biso   1.000  Ir
  Ir3      1.0000 0.16666  0.50000  0.18751  Biso   1.000  Ir
  Ir4      1.0000 0.33335  0.00000  0.27087  Biso   1.000  Ir
  Ir5      1.0000 0.16665  0.50000  0.35417  Biso   1.000  Ir
  Ir6      1.0000 0.33334  0.00000  0.43751  Biso   1.000  Ir
  Ir7      1.0000 0.00000  0.00000  0.52085  Biso   1.000  Ir
  Ir8      1.0000 0.33335  0.00000  0.60416  Biso   1.000  Ir
  Ir9      1.0000 0.16666  0.50000  0.68751  Biso   1.000  Ir
  Ir10     1.0000 0.33335  0.00000  0.77083  Biso   1.000  Ir
  Ir11     1.0000 0.00000  0.00000  0.85414  Biso   1.000  Ir
  Ir12     1.0000 0.33334  0.00000  0.93750  Biso   1.000  Ir
  Ir13     1.0000 0.66665  0.00000  0.02087  Biso   1.000  Ir
  Ir14     1.0000 0.83335  0.50000  0.10417  Biso   1.000  Ir
  Ir15     1.0000 0.66666  0.00000  0.18751  Biso   1.000  Ir
  Ir16     1.0000 0.83335  0.50000  0.27087  Biso   1.000  Ir
  Ir17     1.0000 0.66665  0.00000  0.35417  Biso   1.000  Ir
  Ir18     1.0000 0.83334  0.50000  0.43751  Biso   1.000  Ir
  Ir19     1.0000 0.50000  0.50000  0.52085  Biso   1.000  Ir
  Ir20     1.0000 0.83335  0.50000  0.60416  Biso   1.000  Ir
  Ir21     1.0000 0.66666  0.00000  0.68751  Biso   1.000  Ir
  Ir22     1.0000 0.83335  0.50000  0.77083  Biso   1.000  Ir
  Ir23     1.0000 0.50000  0.50000  0.85414  Biso   1.000  Ir
  Ir24     1.0000 0.83334  0.50000  0.93750  Biso   1.000  Ir
  O1       1.0000 0.00000  0.00000  0.00022  Biso   1.000  O
  O2       1.0000 0.33333  0.00000  0.04142  Biso   1.000  O
  O3       1.0000 0.00000  0.00000  0.08356  Biso   1.000  O
  O4       1.0000 0.16667  0.50000  0.12475  Biso   1.000  O
  O5       1.0000 0.00000  0.00000  0.16688  Biso   1.000  O
  O6       1.0000 0.33333  0.00000  0.20808  Biso   1.000  O
  O7       1.0000 0.00000  0.00000  0.25022  Biso   1.000  O
  O8       1.0000 0.16667  0.50000  0.29142  Biso   1.000  O
  O9       1.0000 0.00000  0.00000  0.33356  Biso   1.000  O
  O10      1.0000 0.33333  0.00000  0.37477  Biso   1.000  O
  O11      1.0000 0.00000  0.00000  0.41690  Biso   1.000  O
  O12      1.0000 0.16667  0.50000  0.45811  Biso   1.000  O
  O13      1.0000 0.33331  0.00000  0.50023  Biso   1.000  O
  O14      1.0000 0.16669  0.50000  0.54144  Biso   1.000  O
  O15      1.0000 0.00000  0.00000  0.58356  Biso   1.000  O
  O16      1.0000 0.16667  0.50000  0.62477  Biso   1.000  O
  O17      1.0000 0.00000  0.00000  0.66688  Biso   1.000  O
  O18      1.0000 0.33333  0.00000  0.70811  Biso   1.000  O
  O19      1.0000 0.00000  0.00000  0.75021  Biso   1.000  O
  O20      1.0000 0.16667  0.50000  0.79146  Biso   1.000  O
  O21      1.0000 0.33331  0.00000  0.83358  Biso   1.000  O
  O22      1.0000 0.16669  0.50000  0.87477  Biso   1.000  O
  O23      1.0000 0.00000  0.00000  0.91689  Biso   1.000  O
  O24      1.0000 0.16667  0.50000  0.95809  Biso   1.000  O
  O25      1.0000 0.50000  0.50000  0.00022  Biso   1.000  O
  O26      1.0000 0.83333  0.50000  0.04142  Biso   1.000  O
  O27      1.0000 0.50000  0.50000  0.08356  Biso   1.000  O
  O28      1.0000 0.66667  0.00000  0.12475  Biso   1.000  O
  O29      1.0000 0.50000  0.50000  0.16688  Biso   1.000  O
  O30      1.0000 0.83333  0.50000  0.20808  Biso   1.000  O
  O31      1.0000 0.50000  0.50000  0.25022  Biso   1.000  O
  O32      1.0000 0.66667  0.00000  0.29142  Biso   1.000  O
  O33      1.0000 0.50000  0.50000  0.33356  Biso   1.000  O
  O34      1.0000 0.83333  0.50000  0.37477  Biso   1.000  O
  O35      1.0000 0.50000  0.50000  0.41690  Biso   1.000  O
  O36      1.0000 0.66667  0.00000  0.45811  Biso   1.000  O
  O37      1.0000 0.83332  0.50000  0.50023  Biso   1.000  O
  O38      1.0000 0.66669  0.00000  0.54144  Biso   1.000  O
  O39      1.0000 0.50000  0.50000  0.58356  Biso   1.000  O
  O40      1.0000 0.66667  0.00000  0.62477  Biso   1.000  O
  O41      1.0000 0.50000  0.50000  0.66688  Biso   1.000  O
  O42      1.0000 0.83333  0.50000  0.70811  Biso   1.000  O
  O43      1.0000 0.50000  0.50000  0.75021  Biso   1.000  O
  O44      1.0000 0.66667  0.00000  0.79146  Biso   1.000  O
  O45      1.0000 0.83331  0.50000  0.83358  Biso   1.000  O
  O46      1.0000 0.66669  0.00000  0.87477  Biso   1.000  O
  O47      1.0000 0.50000  0.50000  0.91689  Biso   1.000  O
  O48      1.0000 0.66667  0.00000  0.95809  Biso   1.000  O
