data_image0
_cell_length_a       8.73787
_cell_length_b       8.73787
_cell_length_c       25.5312
_cell_angle_alpha    90
_cell_angle_beta     90
_cell_angle_gamma    90

_symmetry_space_group_name_H-M    "P 1"
_symmetry_int_tables_number       1

loop_
  _symmetry_equiv_pos_as_xyz
  'x, y, z'

loop_
  _atom_site_label
  _atom_site_occupancy
  _atom_site_fract_x
  _atom_site_fract_y
  _atom_site_fract_z
  _atom_site_thermal_displace_type
  _atom_site_B_iso_or_equiv
  _atom_site_type_symbol
  O1       1.0000 0.25538  0.50000  0.50000  Biso   1.000  O
  O2       1.0000 0.74462  0.50000  0.50000  Biso   1.000  O
  O3       1.0000 0.50000  0.25538  0.00000  Biso   1.000  O
  O4       1.0000 0.50000  0.74462  0.00000  Biso   1.000  O
  O5       1.0000 0.18533  0.68379  0.60607  Biso   1.000  O
  O6       1.0000 0.81467  0.31621  0.60607  Biso   1.000  O
  O7       1.0000 0.31621  0.18533  0.10607  Biso   1.000  O
  O8       1.0000 0.68379  0.81467  0.10607  Biso   1.000  O
  O9       1.0000 0.81467  0.68379  0.39393  Biso   1.000  O
  O10      1.0000 0.18533  0.31621  0.39393  Biso   1.000  O
  O11      1.0000 0.68379  0.18533  0.89393  Biso   1.000  O
  O12      1.0000 0.31621  0.81467  0.89393  Biso   1.000  O
  O13      1.0000 0.81467  0.31621  0.39393  Biso   1.000  O
  O14      1.0000 0.18533  0.68379  0.39393  Biso   1.000  O
  O15      1.0000 0.68379  0.81467  0.89393  Biso   1.000  O
  O16      1.0000 0.31621  0.18533  0.89393  Biso   1.000  O
  O17      1.0000 0.18533  0.31621  0.60607  Biso   1.000  O
  O18      1.0000 0.81467  0.68379  0.60607  Biso   1.000  O
  O19      1.0000 0.31621  0.81467  0.10607  Biso   1.000  O
  O20      1.0000 0.68379  0.18533  0.10607  Biso   1.000  O
  O21      1.0000 0.50000  0.50000  0.59465  Biso   1.000  O
  O22      1.0000 0.50000  0.50000  0.09465  Biso   1.000  O
  O23      1.0000 0.50000  0.50000  0.40535  Biso   1.000  O
  O24      1.0000 0.50000  0.50000  0.90535  Biso   1.000  O
  O25      1.0000 0.00000  0.00000  0.59655  Biso   1.000  O
  O26      1.0000 0.00000  0.00000  0.09655  Biso   1.000  O
  O27      1.0000 0.00000  0.00000  0.40345  Biso   1.000  O
  O28      1.0000 0.00000  0.00000  0.90345  Biso   1.000  O
  O29      1.0000 0.00000  0.81545  0.70525  Biso   1.000  O
  O30      1.0000 0.00000  0.18455  0.70525  Biso   1.000  O
  O31      1.0000 0.18455  0.00000  0.20525  Biso   1.000  O
  O32      1.0000 0.81545  0.00000  0.20525  Biso   1.000  O
  O33      1.0000 0.00000  0.81545  0.29475  Biso   1.000  O
  O34      1.0000 0.00000  0.18455  0.29475  Biso   1.000  O
  O35      1.0000 0.81545  0.00000  0.79475  Biso   1.000  O
  O36      1.0000 0.18455  0.00000  0.79475  Biso   1.000  O
  Ir1      1.0000 0.50000  0.71776  0.07633  Biso   1.000  Ir
  Ir2      1.0000 0.50000  0.28224  0.07633  Biso   1.000  Ir
  Ir3      1.0000 0.28224  0.50000  0.57633  Biso   1.000  Ir
  Ir4      1.0000 0.71776  0.50000  0.57633  Biso   1.000  Ir
  Ir5      1.0000 0.50000  0.71776  0.92367  Biso   1.000  Ir
  Ir6      1.0000 0.50000  0.28224  0.92367  Biso   1.000  Ir
  Ir7      1.0000 0.71776  0.50000  0.42367  Biso   1.000  Ir
  Ir8      1.0000 0.28224  0.50000  0.42367  Biso   1.000  Ir
  Ir9      1.0000 0.00000  0.79319  0.62796  Biso   1.000  Ir
  Ir10     1.0000 0.00000  0.20681  0.62796  Biso   1.000  Ir
  Ir11     1.0000 0.20681  0.00000  0.12796  Biso   1.000  Ir
  Ir12     1.0000 0.79319  0.00000  0.12796  Biso   1.000  Ir
  Ir13     1.0000 0.00000  0.79319  0.37204  Biso   1.000  Ir
  Ir14     1.0000 0.00000  0.20681  0.37204  Biso   1.000  Ir
  Ir15     1.0000 0.79319  0.00000  0.87204  Biso   1.000  Ir
  Ir16     1.0000 0.20681  0.00000  0.87204  Biso   1.000  Ir
  Ir17     1.0000 0.00000  0.00000  0.25000  Biso   1.000  Ir
  Ir18     1.0000 0.00000  0.00000  0.75000  Biso   1.000  Ir
