data_image0
_cell_length_a       22.143
_cell_length_b       4.06363
_cell_length_c       11.5254
_cell_angle_alpha    90
_cell_angle_beta     90
_cell_angle_gamma    90

_symmetry_space_group_name_H-M    "P 1"
_symmetry_int_tables_number       1

loop_
  _symmetry_equiv_pos_as_xyz
  'x, y, z'

loop_
  _atom_site_label
  _atom_site_occupancy
  _atom_site_fract_x
  _atom_site_fract_y
  _atom_site_fract_z
  _atom_site_thermal_displace_type
  _atom_site_B_iso_or_equiv
  _atom_site_type_symbol
  O1       1.0000 0.66015  0.25000  0.04475  Biso   1.000  O
  O2       1.0000 0.83985  0.75000  0.54475  Biso   1.000  O
  O3       1.0000 0.33985  0.75000  0.95525  Biso   1.000  O
  O4       1.0000 0.16015  0.25000  0.45525  Biso   1.000  O
  O5       1.0000 0.85336  0.25000  0.08589  Biso   1.000  O
  O6       1.0000 0.64664  0.75000  0.58589  Biso   1.000  O
  O7       1.0000 0.14664  0.75000  0.91411  Biso   1.000  O
  O8       1.0000 0.35336  0.25000  0.41411  Biso   1.000  O
  O9       1.0000 0.51714  0.25000  0.61274  Biso   1.000  O
  O10      1.0000 0.98286  0.75000  0.11274  Biso   1.000  O
  O11      1.0000 0.48286  0.75000  0.38726  Biso   1.000  O
  O12      1.0000 0.01714  0.25000  0.88726  Biso   1.000  O
  O13      1.0000 0.46567  0.25000  0.11597  Biso   1.000  O
  O14      1.0000 0.03433  0.75000  0.61597  Biso   1.000  O
  O15      1.0000 0.53433  0.75000  0.88403  Biso   1.000  O
  O16      1.0000 0.96567  0.25000  0.38403  Biso   1.000  O
  O17      1.0000 0.10789  0.25000  0.15035  Biso   1.000  O
  O18      1.0000 0.39211  0.75000  0.65035  Biso   1.000  O
  O19      1.0000 0.89211  0.75000  0.84965  Biso   1.000  O
  O20      1.0000 0.60789  0.25000  0.34965  Biso   1.000  O
  O21      1.0000 0.26739  0.25000  0.73446  Biso   1.000  O
  O22      1.0000 0.23261  0.75000  0.23446  Biso   1.000  O
  O23      1.0000 0.73260  0.75000  0.26554  Biso   1.000  O
  O24      1.0000 0.76739  0.25000  0.76553  Biso   1.000  O
  Ir1      1.0000 0.23868  0.25000  0.02024  Biso   1.000  Ir
  Ir2      1.0000 0.26132  0.75000  0.52024  Biso   1.000  Ir
  Ir3      1.0000 0.76132  0.75000  0.97976  Biso   1.000  Ir
  Ir4      1.0000 0.73868  0.25000  0.47976  Biso   1.000  Ir
  Ir5      1.0000 0.93111  0.25000  0.65024  Biso   1.000  Ir
  Ir6      1.0000 0.56889  0.75000  0.15024  Biso   1.000  Ir
  Ir7      1.0000 0.06889  0.75000  0.34976  Biso   1.000  Ir
  Ir8      1.0000 0.43111  0.25000  0.84976  Biso   1.000  Ir
  Ir9      1.0000 0.12751  0.25000  0.71115  Biso   1.000  Ir
  Ir10     1.0000 0.37250  0.75000  0.21115  Biso   1.000  Ir
  Ir11     1.0000 0.87249  0.75000  0.28885  Biso   1.000  Ir
  Ir12     1.0000 0.62750  0.25000  0.78885  Biso   1.000  Ir
