data_image0
_cell_length_a       5.43088
_cell_length_b       5.43088
_cell_length_c       80.9131
_cell_angle_alpha    90
_cell_angle_beta     90
_cell_angle_gamma    120

_symmetry_space_group_name_H-M    "P 1"
_symmetry_int_tables_number       1

loop_
  _symmetry_equiv_pos_as_xyz
  'x, y, z'

loop_
  _atom_site_label
  _atom_site_occupancy
  _atom_site_fract_x
  _atom_site_fract_y
  _atom_site_fract_z
  _atom_site_thermal_displace_type
  _atom_site_B_iso_or_equiv
  _atom_site_type_symbol
  Ir1      1.0000 0.00000  0.00000  0.20453  Biso   1.000  Ir
  Ir2      1.0000 0.33333  0.66667  0.84092  Biso   1.000  Ir
  Ir3      1.0000 0.00000  0.00000  0.02273  Biso   1.000  Ir
  Ir4      1.0000 0.33333  0.66667  0.93181  Biso   1.000  Ir
  Ir5      1.0000 0.33333  0.66667  0.29544  Biso   1.000  Ir
  Ir6      1.0000 0.00000  0.00000  0.38639  Biso   1.000  Ir
  Ir7      1.0000 0.33333  0.66667  0.56819  Biso   1.000  Ir
  Ir8      1.0000 0.33333  0.66667  0.11363  Biso   1.000  Ir
  Ir9      1.0000 0.00000  0.00000  0.47728  Biso   1.000  Ir
  Ir10     1.0000 0.33333  0.66667  0.65907  Biso   1.000  Ir
  Ir11     1.0000 0.33333  0.66667  0.74999  Biso   1.000  Ir
  O1       1.0000 0.66667  0.33333  0.58955  Biso   1.000  O
  O2       1.0000 0.33333  0.66667  0.45588  Biso   1.000  O
  O3       1.0000 0.66667  0.33333  0.40778  Biso   1.000  O
  O4       1.0000 0.33333  0.66667  0.18315  Biso   1.000  O
  O5       1.0000 0.66667  0.33333  0.86231  Biso   1.000  O
  O6       1.0000 0.66667  0.33333  0.95318  Biso   1.000  O
  O7       1.0000 0.00000  0.00000  0.27407  Biso   1.000  O
  O8       1.0000 0.66667  0.33333  0.77137  Biso   1.000  O
  O9       1.0000 0.66667  0.33333  0.04412  Biso   1.000  O
  O10      1.0000 0.66667  0.33333  0.22592  Biso   1.000  O
  O11      1.0000 0.00000  0.00000  0.09225  Biso   1.000  O
  O12      1.0000 0.33333  0.66667  0.00138  Biso   1.000  O
  O13      1.0000 0.66667  0.33333  0.31685  Biso   1.000  O
  O14      1.0000 0.00000  0.00000  0.54680  Biso   1.000  O
  O15      1.0000 0.00000  0.00000  0.72862  Biso   1.000  O
  O16      1.0000 0.33333  0.66667  0.36500  Biso   1.000  O
  O17      1.0000 0.66667  0.33333  0.68046  Biso   1.000  O
  O18      1.0000 0.00000  0.00000  0.91044  Biso   1.000  O
  O19      1.0000 0.00000  0.00000  0.81953  Biso   1.000  O
  O20      1.0000 0.66667  0.33333  0.13502  Biso   1.000  O
  O21      1.0000 0.00000  0.00000  0.63768  Biso   1.000  O
  O22      1.0000 0.66667  0.33333  0.49865  Biso   1.000  O
