data_image0
_cell_length_a       28.4179
_cell_length_b       6.74953
_cell_length_c       29.1866
_cell_angle_alpha    90
_cell_angle_beta     111.13
_cell_angle_gamma    90

_symmetry_space_group_name_H-M    "P 1"
_symmetry_int_tables_number       1

loop_
  _symmetry_equiv_pos_as_xyz
  'x, y, z'

loop_
  _atom_site_label
  _atom_site_occupancy
  _atom_site_fract_x
  _atom_site_fract_y
  _atom_site_fract_z
  _atom_site_thermal_displace_type
  _atom_site_B_iso_or_equiv
  _atom_site_type_symbol
  O1       1.0000 0.15241  0.99870  0.41584  Biso   1.000  O
  O2       1.0000 0.15241  0.00129  0.91584  Biso   1.000  O
  O3       1.0000 0.74901  0.86147  0.25999  Biso   1.000  O
  O4       1.0000 0.24901  0.63853  0.75999  Biso   1.000  O
  O5       1.0000 0.00419  0.99907  0.98490  Biso   1.000  O
  O6       1.0000 0.00419  0.00093  0.48490  Biso   1.000  O
  O7       1.0000 0.99547  0.48911  0.35208  Biso   1.000  O
  O8       1.0000 0.99547  0.51089  0.85208  Biso   1.000  O
  O9       1.0000 0.91402  0.83703  0.68139  Biso   1.000  O
  O10      1.0000 0.91402  0.16297  0.18139  Biso   1.000  O
  O11      1.0000 0.91335  0.64789  0.41920  Biso   1.000  O
  O12      1.0000 0.41335  0.85211  0.91920  Biso   1.000  O
  O13      1.0000 0.72222  0.51560  0.33419  Biso   1.000  O
  O14      1.0000 0.22222  0.98440  0.83419  Biso   1.000  O
  O15      1.0000 0.77128  0.35541  0.49938  Biso   1.000  O
  O16      1.0000 0.27128  0.14459  0.99938  Biso   1.000  O
  O17      1.0000 0.77136  0.02046  0.16031  Biso   1.000  O
  O18      1.0000 0.27136  0.47954  0.66031  Biso   1.000  O
  O19      1.0000 0.07939  0.84120  0.81114  Biso   1.000  O
  O20      1.0000 0.07939  0.15880  0.31114  Biso   1.000  O
  O21      1.0000 0.22935  0.35618  0.48717  Biso   1.000  O
  O22      1.0000 0.22935  0.64382  0.98717  Biso   1.000  O
  O23      1.0000 0.40975  0.35254  0.88744  Biso   1.000  O
  O24      1.0000 0.90975  0.14746  0.38745  Biso   1.000  O
  O25      1.0000 0.64894  0.49417  0.02457  Biso   1.000  O
  O26      1.0000 0.14894  0.00583  0.52457  Biso   1.000  O
  O27      1.0000 0.22887  0.13767  0.72917  Biso   1.000  O
  O28      1.0000 0.72887  0.36234  0.22917  Biso   1.000  O
  O29      1.0000 0.86027  0.00207  0.47569  Biso   1.000  O
  O30      1.0000 0.36027  0.49793  0.97569  Biso   1.000  O
  O31      1.0000 0.57210  0.84959  0.06375  Biso   1.000  O
  O32      1.0000 0.07210  0.65041  0.56375  Biso   1.000  O
  O33      1.0000 0.11761  0.34096  0.82893  Biso   1.000  O
  O34      1.0000 0.11761  0.65904  0.32892  Biso   1.000  O
  O35      1.0000 0.63586  0.00001  0.17233  Biso   1.000  O
  O36      1.0000 0.13586  0.49999  0.67234  Biso   1.000  O
  O37      1.0000 0.85070  0.50743  0.30922  Biso   1.000  O
  O38      1.0000 0.35070  0.99257  0.80922  Biso   1.000  O
  O39      1.0000 0.83926  0.00054  0.57822  Biso   1.000  O
  O40      1.0000 0.83926  0.99946  0.07822  Biso   1.000  O
  O41      1.0000 0.00152  0.52875  0.24352  Biso   1.000  O
  O42      1.0000 0.00152  0.47125  0.74352  Biso   1.000  O
  O43      1.0000 0.98933  0.50824  0.63177  Biso   1.000  O
  O44      1.0000 0.98933  0.49175  0.13177  Biso   1.000  O
  O45      1.0000 0.87453  0.33968  0.66651  Biso   1.000  O
  O46      1.0000 0.87453  0.66032  0.16651  Biso   1.000  O
  O47      1.0000 0.56708  0.34903  0.09350  Biso   1.000  O
  O48      1.0000 0.06708  0.15097  0.59350  Biso   1.000  O
  O49      1.0000 0.65241  0.49870  0.41584  Biso   1.000  O
  O50      1.0000 0.65241  0.50130  0.91584  Biso   1.000  O
  O51      1.0000 0.24901  0.36147  0.25999  Biso   1.000  O
  O52      1.0000 0.74901  0.13853  0.75999  Biso   1.000  O
  O53      1.0000 0.50419  0.49907  0.98490  Biso   1.000  O
  O54      1.0000 0.50419  0.50093  0.48490  Biso   1.000  O
  O55      1.0000 0.49547  0.98911  0.35208  Biso   1.000  O
  O56      1.0000 0.49547  0.01089  0.85208  Biso   1.000  O
  O57      1.0000 0.41402  0.33703  0.68139  Biso   1.000  O
  O58      1.0000 0.41402  0.66297  0.18139  Biso   1.000  O
  O59      1.0000 0.41335  0.14789  0.41920  Biso   1.000  O
  O60      1.0000 0.91335  0.35211  0.91920  Biso   1.000  O
  O61      1.0000 0.22222  0.01559  0.33419  Biso   1.000  O
  O62      1.0000 0.72222  0.48440  0.83419  Biso   1.000  O
  O63      1.0000 0.27128  0.85541  0.49938  Biso   1.000  O
  O64      1.0000 0.77128  0.64459  0.99938  Biso   1.000  O
  O65      1.0000 0.27136  0.52046  0.16031  Biso   1.000  O
  O66      1.0000 0.77136  0.97954  0.66031  Biso   1.000  O
  O67      1.0000 0.57939  0.34120  0.81114  Biso   1.000  O
  O68      1.0000 0.57939  0.65880  0.31114  Biso   1.000  O
  O69      1.0000 0.72935  0.85618  0.48717  Biso   1.000  O
  O70      1.0000 0.72935  0.14382  0.98717  Biso   1.000  O
  O71      1.0000 0.90975  0.85254  0.88744  Biso   1.000  O
  O72      1.0000 0.40975  0.64746  0.38745  Biso   1.000  O
  O73      1.0000 0.14894  0.99417  0.02457  Biso   1.000  O
  O74      1.0000 0.64894  0.50583  0.52457  Biso   1.000  O
  O75      1.0000 0.72887  0.63766  0.72917  Biso   1.000  O
  O76      1.0000 0.22887  0.86233  0.22917  Biso   1.000  O
  O77      1.0000 0.36027  0.50207  0.47569  Biso   1.000  O
  O78      1.0000 0.86027  0.99793  0.97569  Biso   1.000  O
  O79      1.0000 0.07210  0.34959  0.06375  Biso   1.000  O
  O80      1.0000 0.57210  0.15041  0.56375  Biso   1.000  O
  O81      1.0000 0.61762  0.84096  0.82893  Biso   1.000  O
  O82      1.0000 0.61762  0.15904  0.32892  Biso   1.000  O
  O83      1.0000 0.13586  0.50001  0.17233  Biso   1.000  O
  O84      1.0000 0.63586  0.99999  0.67234  Biso   1.000  O
  O85      1.0000 0.35070  0.00743  0.30922  Biso   1.000  O
  O86      1.0000 0.85070  0.49257  0.80922  Biso   1.000  O
  O87      1.0000 0.33926  0.50054  0.57822  Biso   1.000  O
  O88      1.0000 0.33926  0.49946  0.07822  Biso   1.000  O
  O89      1.0000 0.50152  0.02875  0.24352  Biso   1.000  O
  O90      1.0000 0.50152  0.97125  0.74352  Biso   1.000  O
  O91      1.0000 0.48933  0.00824  0.63177  Biso   1.000  O
  O92      1.0000 0.48933  0.99175  0.13177  Biso   1.000  O
  O93      1.0000 0.37453  0.83968  0.66651  Biso   1.000  O
  O94      1.0000 0.37453  0.16032  0.16651  Biso   1.000  O
  O95      1.0000 0.06708  0.84903  0.09350  Biso   1.000  O
  O96      1.0000 0.56708  0.65097  0.59350  Biso   1.000  O
  Ir1      1.0000 0.57256  0.54672  0.04166  Biso   1.000  Ir
  Ir2      1.0000 0.07256  0.95328  0.54166  Biso   1.000  Ir
  Ir3      1.0000 0.92230  0.95031  0.44239  Biso   1.000  Ir
  Ir4      1.0000 0.42230  0.54969  0.94239  Biso   1.000  Ir
  Ir5      1.0000 0.84980  0.96125  0.14663  Biso   1.000  Ir
  Ir6      1.0000 0.84980  0.03875  0.64663  Biso   1.000  Ir
  Ir7      1.0000 0.79978  0.94775  0.01053  Biso   1.000  Ir
  Ir8      1.0000 0.79978  0.05225  0.51053  Biso   1.000  Ir
  Ir9      1.0000 0.91712  0.44934  0.36733  Biso   1.000  Ir
  Ir10     1.0000 0.41712  0.05066  0.86733  Biso   1.000  Ir
  Ir11     1.0000 0.56661  0.04625  0.11561  Biso   1.000  Ir
  Ir12     1.0000 0.06661  0.45375  0.61561  Biso   1.000  Ir
  Ir13     1.0000 0.76259  0.55946  0.28310  Biso   1.000  Ir
  Ir14     1.0000 0.26259  0.94054  0.78310  Biso   1.000  Ir
  Ir15     1.0000 0.04774  0.54148  0.80891  Biso   1.000  Ir
  Ir16     1.0000 0.04774  0.45852  0.30891  Biso   1.000  Ir
  Ir17     1.0000 0.14319  0.04003  0.84773  Biso   1.000  Ir
  Ir18     1.0000 0.14319  0.95997  0.34773  Biso   1.000  Ir
  Ir19     1.0000 0.20057  0.94747  0.98174  Biso   1.000  Ir
  Ir20     1.0000 0.20057  0.05253  0.48174  Biso   1.000  Ir
  Ir21     1.0000 0.94552  0.46191  0.18100  Biso   1.000  Ir
  Ir22     1.0000 0.94552  0.53809  0.68100  Biso   1.000  Ir
  Ir23     1.0000 0.22192  0.43990  0.70545  Biso   1.000  Ir
  Ir24     1.0000 0.72192  0.06010  0.20545  Biso   1.000  Ir
  Ir25     1.0000 0.07256  0.04672  0.04166  Biso   1.000  Ir
  Ir26     1.0000 0.57256  0.45328  0.54166  Biso   1.000  Ir
  Ir27     1.0000 0.42230  0.45031  0.44239  Biso   1.000  Ir
  Ir28     1.0000 0.92230  0.04969  0.94239  Biso   1.000  Ir
  Ir29     1.0000 0.34979  0.46125  0.14663  Biso   1.000  Ir
  Ir30     1.0000 0.34979  0.53875  0.64663  Biso   1.000  Ir
  Ir31     1.0000 0.29978  0.44775  0.01053  Biso   1.000  Ir
  Ir32     1.0000 0.29978  0.55225  0.51053  Biso   1.000  Ir
  Ir33     1.0000 0.41712  0.94934  0.36733  Biso   1.000  Ir
  Ir34     1.0000 0.91712  0.55066  0.86733  Biso   1.000  Ir
  Ir35     1.0000 0.06661  0.54625  0.11561  Biso   1.000  Ir
  Ir36     1.0000 0.56661  0.95375  0.61561  Biso   1.000  Ir
  Ir37     1.0000 0.26259  0.05946  0.28310  Biso   1.000  Ir
  Ir38     1.0000 0.76259  0.44054  0.78310  Biso   1.000  Ir
  Ir39     1.0000 0.54774  0.04148  0.80891  Biso   1.000  Ir
  Ir40     1.0000 0.54774  0.95852  0.30891  Biso   1.000  Ir
  Ir41     1.0000 0.64319  0.54003  0.84773  Biso   1.000  Ir
  Ir42     1.0000 0.64319  0.45997  0.34773  Biso   1.000  Ir
  Ir43     1.0000 0.70057  0.44747  0.98174  Biso   1.000  Ir
  Ir44     1.0000 0.70057  0.55253  0.48174  Biso   1.000  Ir
  Ir45     1.0000 0.44552  0.96191  0.18100  Biso   1.000  Ir
  Ir46     1.0000 0.44552  0.03809  0.68100  Biso   1.000  Ir
  Ir47     1.0000 0.72192  0.93990  0.70545  Biso   1.000  Ir
  Ir48     1.0000 0.22192  0.56010  0.20545  Biso   1.000  Ir
