data_image0
_cell_length_a       11.8384
_cell_length_b       22.6984
_cell_length_c       7.08603
_cell_angle_alpha    90
_cell_angle_beta     90
_cell_angle_gamma    90

_symmetry_space_group_name_H-M    "P 1"
_symmetry_int_tables_number       1

loop_
  _symmetry_equiv_pos_as_xyz
  'x, y, z'

loop_
  _atom_site_label
  _atom_site_occupancy
  _atom_site_fract_x
  _atom_site_fract_y
  _atom_site_fract_z
  _atom_site_thermal_displace_type
  _atom_site_B_iso_or_equiv
  _atom_site_type_symbol
  Ir1      1.0000 0.50000  0.00000  0.50076  Biso   1.000  Ir
  Ir2      1.0000 0.25000  0.25000  0.25076  Biso   1.000  Ir
  Ir3      1.0000 0.37259  0.11150  0.24109  Biso   1.000  Ir
  Ir4      1.0000 0.62741  0.38850  0.74109  Biso   1.000  Ir
  Ir5      1.0000 0.62259  0.13850  0.49109  Biso   1.000  Ir
  Ir6      1.0000 0.37741  0.36150  0.99109  Biso   1.000  Ir
  Ir7      1.0000 0.50000  0.50000  0.00076  Biso   1.000  Ir
  Ir8      1.0000 0.25000  0.75000  0.75076  Biso   1.000  Ir
  Ir9      1.0000 0.37259  0.61150  0.74109  Biso   1.000  Ir
  Ir10     1.0000 0.62741  0.88850  0.24109  Biso   1.000  Ir
  Ir11     1.0000 0.62259  0.63850  0.99109  Biso   1.000  Ir
  Ir12     1.0000 0.37741  0.86150  0.49109  Biso   1.000  Ir
  Ir13     1.0000 0.00000  0.00000  0.00076  Biso   1.000  Ir
  Ir14     1.0000 0.75000  0.25000  0.75076  Biso   1.000  Ir
  Ir15     1.0000 0.87259  0.11150  0.74109  Biso   1.000  Ir
  Ir16     1.0000 0.12741  0.38850  0.24109  Biso   1.000  Ir
  Ir17     1.0000 0.12259  0.13850  0.99109  Biso   1.000  Ir
  Ir18     1.0000 0.87741  0.36150  0.49109  Biso   1.000  Ir
  Ir19     1.0000 0.00000  0.50000  0.50076  Biso   1.000  Ir
  Ir20     1.0000 0.75000  0.75000  0.25076  Biso   1.000  Ir
  Ir21     1.0000 0.87259  0.61150  0.24109  Biso   1.000  Ir
  Ir22     1.0000 0.12741  0.88850  0.74109  Biso   1.000  Ir
  Ir23     1.0000 0.12259  0.63850  0.49109  Biso   1.000  Ir
  Ir24     1.0000 0.87741  0.86150  0.99109  Biso   1.000  Ir
  O1       1.0000 0.34006  0.01941  0.33993  Biso   1.000  O
  O2       1.0000 0.15994  0.48059  0.33993  Biso   1.000  O
  O3       1.0000 0.59006  0.23059  0.58993  Biso   1.000  O
  O4       1.0000 0.40994  0.26941  0.08993  Biso   1.000  O
  O5       1.0000 0.54214  0.07520  0.69591  Biso   1.000  O
  O6       1.0000 0.45787  0.42480  0.19591  Biso   1.000  O
  O7       1.0000 0.29213  0.17480  0.44591  Biso   1.000  O
  O8       1.0000 0.20786  0.32520  0.44591  Biso   1.000  O
  O9       1.0000 0.30688  0.12055  0.94468  Biso   1.000  O
  O10      1.0000 0.69312  0.37945  0.44468  Biso   1.000  O
  O11      1.0000 0.55688  0.12945  0.19468  Biso   1.000  O
  O12      1.0000 0.44312  0.37055  0.69468  Biso   1.000  O
  O13      1.0000 0.34006  0.51941  0.83993  Biso   1.000  O
  O14      1.0000 0.15994  0.98059  0.83993  Biso   1.000  O
  O15      1.0000 0.59006  0.73059  0.08993  Biso   1.000  O
  O16      1.0000 0.40994  0.76941  0.58993  Biso   1.000  O
  O17      1.0000 0.54214  0.57520  0.19591  Biso   1.000  O
  O18      1.0000 0.45787  0.92480  0.69591  Biso   1.000  O
  O19      1.0000 0.29213  0.67480  0.94591  Biso   1.000  O
  O20      1.0000 0.20786  0.82520  0.94591  Biso   1.000  O
  O21      1.0000 0.30688  0.62055  0.44468  Biso   1.000  O
  O22      1.0000 0.69312  0.87945  0.94468  Biso   1.000  O
  O23      1.0000 0.55688  0.62945  0.69468  Biso   1.000  O
  O24      1.0000 0.44312  0.87055  0.19468  Biso   1.000  O
  O25      1.0000 0.84006  0.01941  0.83993  Biso   1.000  O
  O26      1.0000 0.65994  0.48059  0.83993  Biso   1.000  O
  O27      1.0000 0.09006  0.23059  0.08993  Biso   1.000  O
  O28      1.0000 0.90994  0.26941  0.58993  Biso   1.000  O
  O29      1.0000 0.04213  0.07520  0.19591  Biso   1.000  O
  O30      1.0000 0.95786  0.42480  0.69591  Biso   1.000  O
  O31      1.0000 0.79214  0.17480  0.94591  Biso   1.000  O
  O32      1.0000 0.70786  0.32520  0.94591  Biso   1.000  O
  O33      1.0000 0.80688  0.12055  0.44468  Biso   1.000  O
  O34      1.0000 0.19312  0.37945  0.94468  Biso   1.000  O
  O35      1.0000 0.05688  0.12945  0.69468  Biso   1.000  O
  O36      1.0000 0.94312  0.37055  0.19468  Biso   1.000  O
  O37      1.0000 0.84006  0.51941  0.33993  Biso   1.000  O
  O38      1.0000 0.65994  0.98059  0.33993  Biso   1.000  O
  O39      1.0000 0.09006  0.73059  0.58993  Biso   1.000  O
  O40      1.0000 0.90994  0.76941  0.08993  Biso   1.000  O
  O41      1.0000 0.04213  0.57520  0.69591  Biso   1.000  O
  O42      1.0000 0.95786  0.92480  0.19591  Biso   1.000  O
  O43      1.0000 0.79214  0.67480  0.44591  Biso   1.000  O
  O44      1.0000 0.70786  0.82520  0.44591  Biso   1.000  O
  O45      1.0000 0.80688  0.62055  0.94468  Biso   1.000  O
  O46      1.0000 0.19312  0.87945  0.44468  Biso   1.000  O
  O47      1.0000 0.05688  0.62945  0.19468  Biso   1.000  O
  O48      1.0000 0.94312  0.87055  0.69468  Biso   1.000  O
