data_image0
_cell_length_a       9.16115
_cell_length_b       15.6039
_cell_length_c       16.7372
_cell_angle_alpha    90
_cell_angle_beta     90
_cell_angle_gamma    90

_symmetry_space_group_name_H-M    "P 1"
_symmetry_int_tables_number       1

loop_
  _symmetry_equiv_pos_as_xyz
  'x, y, z'

loop_
  _atom_site_label
  _atom_site_occupancy
  _atom_site_fract_x
  _atom_site_fract_y
  _atom_site_fract_z
  _atom_site_thermal_displace_type
  _atom_site_B_iso_or_equiv
  _atom_site_type_symbol
  O1       1.0000 0.52573  0.62229  0.55339  Biso   1.000  O
  O2       1.0000 0.97427  0.37771  0.05339  Biso   1.000  O
  O3       1.0000 0.47427  0.12229  0.44661  Biso   1.000  O
  O4       1.0000 0.02573  0.87771  0.94661  Biso   1.000  O
  O5       1.0000 0.47427  0.37771  0.44661  Biso   1.000  O
  O6       1.0000 0.02573  0.62229  0.94661  Biso   1.000  O
  O7       1.0000 0.52573  0.87771  0.55339  Biso   1.000  O
  O8       1.0000 0.97427  0.12229  0.05339  Biso   1.000  O
  O9       1.0000 0.07066  0.55800  0.76543  Biso   1.000  O
  O10      1.0000 0.42934  0.44200  0.26543  Biso   1.000  O
  O11      1.0000 0.92934  0.05800  0.23457  Biso   1.000  O
  O12      1.0000 0.57066  0.94200  0.73457  Biso   1.000  O
  O13      1.0000 0.92934  0.44200  0.23457  Biso   1.000  O
  O14      1.0000 0.57066  0.55800  0.73457  Biso   1.000  O
  O15      1.0000 0.07066  0.94200  0.76543  Biso   1.000  O
  O16      1.0000 0.42934  0.05800  0.26543  Biso   1.000  O
  O17      1.0000 0.84547  0.61994  0.62922  Biso   1.000  O
  O18      1.0000 0.65453  0.38006  0.12921  Biso   1.000  O
  O19      1.0000 0.15453  0.11994  0.37078  Biso   1.000  O
  O20      1.0000 0.34547  0.88006  0.87079  Biso   1.000  O
  O21      1.0000 0.15453  0.38006  0.37078  Biso   1.000  O
  O22      1.0000 0.34547  0.61994  0.87079  Biso   1.000  O
  O23      1.0000 0.84547  0.88006  0.62922  Biso   1.000  O
  O24      1.0000 0.65453  0.11994  0.12921  Biso   1.000  O
  O25      1.0000 0.18341  0.59026  0.58628  Biso   1.000  O
  O26      1.0000 0.31659  0.40974  0.08628  Biso   1.000  O
  O27      1.0000 0.81659  0.09026  0.41372  Biso   1.000  O
  O28      1.0000 0.68341  0.90974  0.91372  Biso   1.000  O
  O29      1.0000 0.81659  0.40974  0.41372  Biso   1.000  O
  O30      1.0000 0.68341  0.59026  0.91372  Biso   1.000  O
  O31      1.0000 0.18341  0.90974  0.58628  Biso   1.000  O
  O32      1.0000 0.31659  0.09026  0.08628  Biso   1.000  O
  O33      1.0000 0.31566  0.55821  0.41102  Biso   1.000  O
  O34      1.0000 0.18435  0.44179  0.91102  Biso   1.000  O
  O35      1.0000 0.68434  0.05821  0.58898  Biso   1.000  O
  O36      1.0000 0.81565  0.94179  0.08898  Biso   1.000  O
  O37      1.0000 0.68434  0.44179  0.58898  Biso   1.000  O
  O38      1.0000 0.81565  0.55821  0.08898  Biso   1.000  O
  O39      1.0000 0.31566  0.94179  0.41102  Biso   1.000  O
  O40      1.0000 0.18435  0.05821  0.91102  Biso   1.000  O
  O41      1.0000 0.41164  0.25000  0.19666  Biso   1.000  O
  O42      1.0000 0.08836  0.75000  0.69666  Biso   1.000  O
  O43      1.0000 0.58836  0.75000  0.80334  Biso   1.000  O
  O44      1.0000 0.91164  0.25000  0.30334  Biso   1.000  O
  O45      1.0000 0.21254  0.25000  0.97784  Biso   1.000  O
  O46      1.0000 0.28746  0.75000  0.47784  Biso   1.000  O
  O47      1.0000 0.78746  0.75000  0.02216  Biso   1.000  O
  O48      1.0000 0.71254  0.25000  0.52216  Biso   1.000  O
  Ir1      1.0000 0.04628  0.62934  0.66926  Biso   1.000  Ir
  Ir2      1.0000 0.45373  0.37066  0.16926  Biso   1.000  Ir
  Ir3      1.0000 0.95373  0.12934  0.33074  Biso   1.000  Ir
  Ir4      1.0000 0.54628  0.87066  0.83074  Biso   1.000  Ir
  Ir5      1.0000 0.95373  0.37066  0.33074  Biso   1.000  Ir
  Ir6      1.0000 0.54628  0.62934  0.83074  Biso   1.000  Ir
  Ir7      1.0000 0.04628  0.87066  0.66926  Biso   1.000  Ir
  Ir8      1.0000 0.45373  0.12934  0.16926  Biso   1.000  Ir
  Ir9      1.0000 0.65679  0.56038  0.62662  Biso   1.000  Ir
  Ir10     1.0000 0.84321  0.43962  0.12662  Biso   1.000  Ir
  Ir11     1.0000 0.34321  0.06038  0.37338  Biso   1.000  Ir
  Ir12     1.0000 0.15679  0.93962  0.87338  Biso   1.000  Ir
  Ir13     1.0000 0.34321  0.43962  0.37338  Biso   1.000  Ir
  Ir14     1.0000 0.15679  0.56038  0.87338  Biso   1.000  Ir
  Ir15     1.0000 0.65679  0.93962  0.62662  Biso   1.000  Ir
  Ir16     1.0000 0.84321  0.06038  0.12662  Biso   1.000  Ir
  Ir17     1.0000 0.32805  0.63018  0.50735  Biso   1.000  Ir
  Ir18     1.0000 0.17194  0.36982  0.00735  Biso   1.000  Ir
  Ir19     1.0000 0.67195  0.13018  0.49265  Biso   1.000  Ir
  Ir20     1.0000 0.82805  0.86982  0.99265  Biso   1.000  Ir
  Ir21     1.0000 0.67195  0.36982  0.49265  Biso   1.000  Ir
  Ir22     1.0000 0.82805  0.63018  0.99265  Biso   1.000  Ir
  Ir23     1.0000 0.32805  0.86982  0.50735  Biso   1.000  Ir
  Ir24     1.0000 0.17194  0.13018  0.00735  Biso   1.000  Ir
