data_image0
_cell_length_a       12.1305
_cell_length_b       12.1305
_cell_length_c       12.1305
_cell_angle_alpha    90
_cell_angle_beta     90
_cell_angle_gamma    90

_symmetry_space_group_name_H-M    "P 1"
_symmetry_int_tables_number       1

loop_
  _symmetry_equiv_pos_as_xyz
  'x, y, z'

loop_
  _atom_site_label
  _atom_site_occupancy
  _atom_site_fract_x
  _atom_site_fract_y
  _atom_site_fract_z
  _atom_site_thermal_displace_type
  _atom_site_B_iso_or_equiv
  _atom_site_type_symbol
  Ir1      1.0000 0.25000  0.90273  0.00000  Biso   1.000  Ir
  Ir2      1.0000 0.75000  0.59727  0.00000  Biso   1.000  Ir
  Ir3      1.0000 0.00000  0.75000  0.59727  Biso   1.000  Ir
  Ir4      1.0000 0.50000  0.75000  0.40273  Biso   1.000  Ir
  Ir5      1.0000 0.09727  0.50000  0.25000  Biso   1.000  Ir
  Ir6      1.0000 0.90273  0.00000  0.25000  Biso   1.000  Ir
  Ir7      1.0000 0.75000  0.40273  0.50000  Biso   1.000  Ir
  Ir8      1.0000 0.25000  0.09727  0.50000  Biso   1.000  Ir
  Ir9      1.0000 0.50000  0.25000  0.09727  Biso   1.000  Ir
  Ir10     1.0000 0.00000  0.25000  0.90273  Biso   1.000  Ir
  Ir11     1.0000 0.59727  0.00000  0.75000  Biso   1.000  Ir
  Ir12     1.0000 0.40273  0.50000  0.75000  Biso   1.000  Ir
  O1       1.0000 0.90329  0.64120  0.66457  Biso   1.000  O
  O2       1.0000 0.40329  0.85880  0.33543  Biso   1.000  O
  O3       1.0000 0.59671  0.35880  0.16457  Biso   1.000  O
  O4       1.0000 0.59671  0.64120  0.33543  Biso   1.000  O
  O5       1.0000 0.16457  0.59671  0.35880  Biso   1.000  O
  O6       1.0000 0.33543  0.59671  0.64120  Biso   1.000  O
  O7       1.0000 0.16457  0.40329  0.14120  Biso   1.000  O
  O8       1.0000 0.83543  0.90329  0.35880  Biso   1.000  O
  O9       1.0000 0.35880  0.83543  0.90329  Biso   1.000  O
  O10      1.0000 0.64120  0.66457  0.90329  Biso   1.000  O
  O11      1.0000 0.14120  0.83543  0.09671  Biso   1.000  O
  O12      1.0000 0.35880  0.16457  0.59671  Biso   1.000  O
  O13      1.0000 0.40329  0.14120  0.16457  Biso   1.000  O
  O14      1.0000 0.90329  0.35880  0.83543  Biso   1.000  O
  O15      1.0000 0.09671  0.85880  0.66457  Biso   1.000  O
  O16      1.0000 0.09671  0.14120  0.83543  Biso   1.000  O
  O17      1.0000 0.66457  0.09671  0.85880  Biso   1.000  O
  O18      1.0000 0.83543  0.09671  0.14120  Biso   1.000  O
  O19      1.0000 0.66457  0.90329  0.64120  Biso   1.000  O
  O20      1.0000 0.33543  0.40329  0.85880  Biso   1.000  O
  O21      1.0000 0.85880  0.33543  0.40329  Biso   1.000  O
  O22      1.0000 0.14120  0.16457  0.40329  Biso   1.000  O
  O23      1.0000 0.64120  0.33543  0.59671  Biso   1.000  O
  O24      1.0000 0.85880  0.66457  0.09671  Biso   1.000  O
