data_image0
_cell_length_a       8.26347
_cell_length_b       8.26347
_cell_length_c       8.35282
_cell_angle_alpha    90
_cell_angle_beta     90
_cell_angle_gamma    90

_symmetry_space_group_name_H-M    "P 1"
_symmetry_int_tables_number       1

loop_
  _symmetry_equiv_pos_as_xyz
  'x, y, z'

loop_
  _atom_site_label
  _atom_site_occupancy
  _atom_site_fract_x
  _atom_site_fract_y
  _atom_site_fract_z
  _atom_site_thermal_displace_type
  _atom_site_B_iso_or_equiv
  _atom_site_type_symbol
  O1       1.0000 0.00000  0.50000  0.55240  Biso   1.000  O
  O2       1.0000 0.50000  0.00000  0.44760  Biso   1.000  O
  O3       1.0000 0.50000  0.00000  0.05240  Biso   1.000  O
  O4       1.0000 0.00000  0.50000  0.94760  Biso   1.000  O
  O5       1.0000 0.65557  0.67923  0.59361  Biso   1.000  O
  O6       1.0000 0.34443  0.32077  0.59361  Biso   1.000  O
  O7       1.0000 0.67923  0.34443  0.40639  Biso   1.000  O
  O8       1.0000 0.32077  0.65557  0.40639  Biso   1.000  O
  O9       1.0000 0.15557  0.82077  0.09361  Biso   1.000  O
  O10      1.0000 0.84443  0.17923  0.09361  Biso   1.000  O
  O11      1.0000 0.17923  0.15557  0.90639  Biso   1.000  O
  O12      1.0000 0.82077  0.84443  0.90639  Biso   1.000  O
  O13      1.0000 0.83000  0.67000  0.25000  Biso   1.000  O
  O14      1.0000 0.17000  0.33000  0.25000  Biso   1.000  O
  O15      1.0000 0.67000  0.17000  0.75000  Biso   1.000  O
  O16      1.0000 0.33000  0.83000  0.75000  Biso   1.000  O
  Ir1      1.0000 0.55019  0.20791  0.54975  Biso   1.000  Ir
  Ir2      1.0000 0.44981  0.79209  0.54975  Biso   1.000  Ir
  Ir3      1.0000 0.20791  0.44981  0.45025  Biso   1.000  Ir
  Ir4      1.0000 0.79209  0.55019  0.45025  Biso   1.000  Ir
  Ir5      1.0000 0.05019  0.29209  0.04975  Biso   1.000  Ir
  Ir6      1.0000 0.94981  0.70791  0.04975  Biso   1.000  Ir
  Ir7      1.0000 0.70791  0.05019  0.95025  Biso   1.000  Ir
  Ir8      1.0000 0.29209  0.94981  0.95025  Biso   1.000  Ir
