data_image0
_cell_length_a       12.4939
_cell_length_b       15.3353
_cell_length_c       26.489
_cell_angle_alpha    90
_cell_angle_beta     90
_cell_angle_gamma    90

_symmetry_space_group_name_H-M    "P 1"
_symmetry_int_tables_number       1

loop_
  _symmetry_equiv_pos_as_xyz
  'x, y, z'

loop_
  _atom_site_label
  _atom_site_occupancy
  _atom_site_fract_x
  _atom_site_fract_y
  _atom_site_fract_z
  _atom_site_thermal_displace_type
  _atom_site_B_iso_or_equiv
  _atom_site_type_symbol
  O1       1.0000 0.30825  0.54920  0.05405  Biso   1.000  O
  O2       1.0000 0.69175  0.95080  0.05405  Biso   1.000  O
  O3       1.0000 0.19175  0.54920  0.44595  Biso   1.000  O
  O4       1.0000 0.80825  0.95080  0.44595  Biso   1.000  O
  O5       1.0000 0.19175  0.95080  0.44595  Biso   1.000  O
  O6       1.0000 0.80825  0.54920  0.44595  Biso   1.000  O
  O7       1.0000 0.30825  0.95080  0.05405  Biso   1.000  O
  O8       1.0000 0.69175  0.54920  0.05405  Biso   1.000  O
  O9       1.0000 0.12809  0.62249  0.13141  Biso   1.000  O
  O10      1.0000 0.87190  0.87751  0.13141  Biso   1.000  O
  O11      1.0000 0.37190  0.62249  0.36859  Biso   1.000  O
  O12      1.0000 0.62809  0.87751  0.36859  Biso   1.000  O
  O13      1.0000 0.37190  0.87751  0.36859  Biso   1.000  O
  O14      1.0000 0.62809  0.62249  0.36859  Biso   1.000  O
  O15      1.0000 0.12809  0.87751  0.13141  Biso   1.000  O
  O16      1.0000 0.87190  0.62249  0.13141  Biso   1.000  O
  O17      1.0000 0.37107  0.59635  0.16822  Biso   1.000  O
  O18      1.0000 0.62893  0.90365  0.16822  Biso   1.000  O
  O19      1.0000 0.12893  0.59635  0.33178  Biso   1.000  O
  O20      1.0000 0.87107  0.90365  0.33178  Biso   1.000  O
  O21      1.0000 0.12893  0.90365  0.33178  Biso   1.000  O
  O22      1.0000 0.87107  0.59635  0.33178  Biso   1.000  O
  O23      1.0000 0.37107  0.90365  0.16822  Biso   1.000  O
  O24      1.0000 0.62893  0.59635  0.16822  Biso   1.000  O
  O25      1.0000 0.31140  0.75000  0.09007  Biso   1.000  O
  O26      1.0000 0.68860  0.75000  0.09007  Biso   1.000  O
  O27      1.0000 0.18860  0.75000  0.40993  Biso   1.000  O
  O28      1.0000 0.81140  0.75000  0.40993  Biso   1.000  O
  O29      1.0000 0.00000  0.05945  0.13015  Biso   1.000  O
  O30      1.0000 0.00000  0.44055  0.13015  Biso   1.000  O
  O31      1.0000 0.50000  0.05945  0.36985  Biso   1.000  O
  O32      1.0000 0.50000  0.44055  0.36985  Biso   1.000  O
  O33      1.0000 0.00000  0.94364  0.23015  Biso   1.000  O
  O34      1.0000 0.00000  0.55636  0.23015  Biso   1.000  O
  O35      1.0000 0.50000  0.94364  0.26985  Biso   1.000  O
  O36      1.0000 0.50000  0.55636  0.26985  Biso   1.000  O
  O37      1.0000 0.00000  0.75000  0.27446  Biso   1.000  O
  O38      1.0000 0.50000  0.75000  0.22554  Biso   1.000  O
  O39      1.0000 0.37142  0.09530  0.47312  Biso   1.000  O
  O40      1.0000 0.62858  0.40470  0.47312  Biso   1.000  O
  O41      1.0000 0.12858  0.09530  0.02688  Biso   1.000  O
  O42      1.0000 0.87142  0.40470  0.02688  Biso   1.000  O
  O43      1.0000 0.12858  0.40470  0.02688  Biso   1.000  O
  O44      1.0000 0.87142  0.09530  0.02688  Biso   1.000  O
  O45      1.0000 0.37142  0.40470  0.47312  Biso   1.000  O
  O46      1.0000 0.62858  0.09530  0.47312  Biso   1.000  O
  O47      1.0000 0.50000  0.25000  0.41803  Biso   1.000  O
  O48      1.0000 0.00000  0.25000  0.08197  Biso   1.000  O
  O49      1.0000 0.80825  0.04920  0.55405  Biso   1.000  O
  O50      1.0000 0.19175  0.45080  0.55405  Biso   1.000  O
  O51      1.0000 0.69175  0.04920  0.94595  Biso   1.000  O
  O52      1.0000 0.30825  0.45080  0.94595  Biso   1.000  O
  O53      1.0000 0.69175  0.45080  0.94595  Biso   1.000  O
  O54      1.0000 0.30825  0.04920  0.94595  Biso   1.000  O
  O55      1.0000 0.80825  0.45080  0.55405  Biso   1.000  O
  O56      1.0000 0.19175  0.04920  0.55405  Biso   1.000  O
  O57      1.0000 0.62809  0.12249  0.63141  Biso   1.000  O
  O58      1.0000 0.37190  0.37751  0.63141  Biso   1.000  O
  O59      1.0000 0.87190  0.12249  0.86859  Biso   1.000  O
  O60      1.0000 0.12809  0.37751  0.86859  Biso   1.000  O
  O61      1.0000 0.87190  0.37751  0.86859  Biso   1.000  O
  O62      1.0000 0.12809  0.12249  0.86859  Biso   1.000  O
  O63      1.0000 0.62809  0.37751  0.63141  Biso   1.000  O
  O64      1.0000 0.37190  0.12249  0.63141  Biso   1.000  O
  O65      1.0000 0.87107  0.09634  0.66822  Biso   1.000  O
  O66      1.0000 0.12893  0.40365  0.66822  Biso   1.000  O
  O67      1.0000 0.62893  0.09634  0.83178  Biso   1.000  O
  O68      1.0000 0.37107  0.40365  0.83178  Biso   1.000  O
  O69      1.0000 0.62893  0.40365  0.83178  Biso   1.000  O
  O70      1.0000 0.37107  0.09634  0.83178  Biso   1.000  O
  O71      1.0000 0.87107  0.40365  0.66822  Biso   1.000  O
  O72      1.0000 0.12893  0.09634  0.66822  Biso   1.000  O
  O73      1.0000 0.81140  0.25000  0.59007  Biso   1.000  O
  O74      1.0000 0.18860  0.25000  0.59007  Biso   1.000  O
  O75      1.0000 0.68860  0.25000  0.90993  Biso   1.000  O
  O76      1.0000 0.31140  0.25000  0.90993  Biso   1.000  O
  O77      1.0000 0.50000  0.55945  0.63015  Biso   1.000  O
  O78      1.0000 0.50000  0.94055  0.63015  Biso   1.000  O
  O79      1.0000 0.00000  0.55945  0.86985  Biso   1.000  O
  O80      1.0000 0.00000  0.94055  0.86985  Biso   1.000  O
  O81      1.0000 0.50000  0.44364  0.73015  Biso   1.000  O
  O82      1.0000 0.50000  0.05636  0.73015  Biso   1.000  O
  O83      1.0000 0.00000  0.44364  0.76985  Biso   1.000  O
  O84      1.0000 0.00000  0.05636  0.76985  Biso   1.000  O
  O85      1.0000 0.50000  0.25000  0.77446  Biso   1.000  O
  O86      1.0000 0.00000  0.25000  0.72554  Biso   1.000  O
  O87      1.0000 0.87142  0.59530  0.97312  Biso   1.000  O
  O88      1.0000 0.12858  0.90470  0.97312  Biso   1.000  O
  O89      1.0000 0.62858  0.59530  0.52688  Biso   1.000  O
  O90      1.0000 0.37142  0.90470  0.52688  Biso   1.000  O
  O91      1.0000 0.62858  0.90470  0.52688  Biso   1.000  O
  O92      1.0000 0.37142  0.59530  0.52688  Biso   1.000  O
  O93      1.0000 0.87142  0.90470  0.97312  Biso   1.000  O
  O94      1.0000 0.12858  0.59530  0.97312  Biso   1.000  O
  O95      1.0000 0.00000  0.75000  0.91803  Biso   1.000  O
  O96      1.0000 0.50000  0.75000  0.58197  Biso   1.000  O
  Ir1      1.0000 0.27933  0.62925  0.11100  Biso   1.000  Ir
  Ir2      1.0000 0.72067  0.87075  0.11100  Biso   1.000  Ir
  Ir3      1.0000 0.22067  0.62925  0.38900  Biso   1.000  Ir
  Ir4      1.0000 0.77933  0.87075  0.38900  Biso   1.000  Ir
  Ir5      1.0000 0.22067  0.87075  0.38900  Biso   1.000  Ir
  Ir6      1.0000 0.77933  0.62925  0.38900  Biso   1.000  Ir
  Ir7      1.0000 0.27933  0.87075  0.11100  Biso   1.000  Ir
  Ir8      1.0000 0.72067  0.62925  0.11100  Biso   1.000  Ir
  Ir9      1.0000 0.00000  0.93888  0.15603  Biso   1.000  Ir
  Ir10     1.0000 0.00000  0.56112  0.15603  Biso   1.000  Ir
  Ir11     1.0000 0.50000  0.93888  0.34397  Biso   1.000  Ir
  Ir12     1.0000 0.50000  0.56112  0.34397  Biso   1.000  Ir
  Ir13     1.0000 0.00000  0.62518  0.29245  Biso   1.000  Ir
  Ir14     1.0000 0.00000  0.87482  0.29245  Biso   1.000  Ir
  Ir15     1.0000 0.50000  0.62518  0.20755  Biso   1.000  Ir
  Ir16     1.0000 0.50000  0.87482  0.20755  Biso   1.000  Ir
  Ir17     1.0000 0.50000  0.12523  0.43359  Biso   1.000  Ir
  Ir18     1.0000 0.50000  0.37477  0.43359  Biso   1.000  Ir
  Ir19     1.0000 0.00000  0.12523  0.06641  Biso   1.000  Ir
  Ir20     1.0000 0.00000  0.37477  0.06641  Biso   1.000  Ir
  Ir21     1.0000 0.78143  0.00000  0.00000  Biso   1.000  Ir
  Ir22     1.0000 0.21857  0.50000  0.00000  Biso   1.000  Ir
  Ir23     1.0000 0.21857  0.00000  0.00000  Biso   1.000  Ir
  Ir24     1.0000 0.78143  0.50000  0.00000  Biso   1.000  Ir
  Ir25     1.0000 0.77933  0.12925  0.61100  Biso   1.000  Ir
  Ir26     1.0000 0.22067  0.37075  0.61100  Biso   1.000  Ir
  Ir27     1.0000 0.72067  0.12925  0.88900  Biso   1.000  Ir
  Ir28     1.0000 0.27933  0.37075  0.88900  Biso   1.000  Ir
  Ir29     1.0000 0.72067  0.37075  0.88900  Biso   1.000  Ir
  Ir30     1.0000 0.27933  0.12925  0.88900  Biso   1.000  Ir
  Ir31     1.0000 0.77933  0.37075  0.61100  Biso   1.000  Ir
  Ir32     1.0000 0.22067  0.12925  0.61100  Biso   1.000  Ir
  Ir33     1.0000 0.50000  0.43888  0.65603  Biso   1.000  Ir
  Ir34     1.0000 0.50000  0.06112  0.65603  Biso   1.000  Ir
  Ir35     1.0000 0.00000  0.43888  0.84397  Biso   1.000  Ir
  Ir36     1.0000 0.00000  0.06112  0.84397  Biso   1.000  Ir
  Ir37     1.0000 0.50000  0.12518  0.79245  Biso   1.000  Ir
  Ir38     1.0000 0.50000  0.37482  0.79245  Biso   1.000  Ir
  Ir39     1.0000 0.00000  0.12518  0.70755  Biso   1.000  Ir
  Ir40     1.0000 0.00000  0.37482  0.70755  Biso   1.000  Ir
  Ir41     1.0000 0.00000  0.62523  0.93359  Biso   1.000  Ir
  Ir42     1.0000 0.00000  0.87477  0.93359  Biso   1.000  Ir
  Ir43     1.0000 0.50000  0.62523  0.56641  Biso   1.000  Ir
  Ir44     1.0000 0.50000  0.87477  0.56641  Biso   1.000  Ir
  Ir45     1.0000 0.28143  0.50000  0.50000  Biso   1.000  Ir
  Ir46     1.0000 0.71857  0.00000  0.50000  Biso   1.000  Ir
  Ir47     1.0000 0.71857  0.50000  0.50000  Biso   1.000  Ir
  Ir48     1.0000 0.28143  0.00000  0.50000  Biso   1.000  Ir
