data_image0
_cell_length_a       6.2921
_cell_length_b       8.17172
_cell_length_c       10.3409
_cell_angle_alpha    90
_cell_angle_beta     107.701
_cell_angle_gamma    90

_symmetry_space_group_name_H-M    "P 1"
_symmetry_int_tables_number       1

loop_
  _symmetry_equiv_pos_as_xyz
  'x, y, z'

loop_
  _atom_site_label
  _atom_site_occupancy
  _atom_site_fract_x
  _atom_site_fract_y
  _atom_site_fract_z
  _atom_site_thermal_displace_type
  _atom_site_B_iso_or_equiv
  _atom_site_type_symbol
  O1       1.0000 0.74909  0.00000  0.86529  Biso   1.000  O
  O2       1.0000 0.25090  0.00000  0.13471  Biso   1.000  O
  O3       1.0000 0.75476  0.24184  0.13242  Biso   1.000  O
  O4       1.0000 0.24524  0.24184  0.86758  Biso   1.000  O
  O5       1.0000 0.24524  0.75816  0.86758  Biso   1.000  O
  O6       1.0000 0.75476  0.75816  0.13242  Biso   1.000  O
  O7       1.0000 0.69735  0.00000  0.38481  Biso   1.000  O
  O8       1.0000 0.30265  0.00000  0.61520  Biso   1.000  O
  Ir1      1.0000 0.36656  0.00000  0.79961  Biso   1.000  Ir
  Ir2      1.0000 0.63344  0.00000  0.20039  Biso   1.000  Ir
  Ir3      1.0000 0.00000  0.83645  0.00000  Biso   1.000  Ir
  Ir4      1.0000 0.00000  0.16355  0.00000  Biso   1.000  Ir
