data_image0
_cell_length_a       5.42752
_cell_length_b       5.42752
_cell_length_c       103.16
_cell_angle_alpha    90
_cell_angle_beta     90
_cell_angle_gamma    120

_symmetry_space_group_name_H-M    "P 1"
_symmetry_int_tables_number       1

loop_
  _symmetry_equiv_pos_as_xyz
  'x, y, z'

loop_
  _atom_site_label
  _atom_site_occupancy
  _atom_site_fract_x
  _atom_site_fract_y
  _atom_site_fract_z
  _atom_site_thermal_displace_type
  _atom_site_B_iso_or_equiv
  _atom_site_type_symbol
  Ir1      1.0000 0.00000  0.00000  0.80357  Biso   1.000  Ir
  Ir2      1.0000 0.66667  0.33333  0.16071  Biso   1.000  Ir
  Ir3      1.0000 0.00000  0.00000  0.94644  Biso   1.000  Ir
  Ir4      1.0000 0.66667  0.33333  0.58928  Biso   1.000  Ir
  Ir5      1.0000 0.00000  0.00000  0.08928  Biso   1.000  Ir
  Ir6      1.0000 0.33333  0.66667  0.73215  Biso   1.000  Ir
  Ir7      1.0000 0.00000  0.00000  0.66071  Biso   1.000  Ir
  Ir8      1.0000 0.66667  0.33333  0.30357  Biso   1.000  Ir
  Ir9      1.0000 0.66667  0.33333  0.01785  Biso   1.000  Ir
  Ir10     1.0000 0.66667  0.33333  0.44644  Biso   1.000  Ir
  Ir11     1.0000 0.00000  0.00000  0.51785  Biso   1.000  Ir
  Ir12     1.0000 0.00000  0.00000  0.37499  Biso   1.000  Ir
  Ir13     1.0000 0.33333  0.66667  0.87499  Biso   1.000  Ir
  Ir14     1.0000 0.00000  0.00000  0.23214  Biso   1.000  Ir
  O1       1.0000 0.33333  0.66667  0.92968  Biso   1.000  O
  O2       1.0000 0.33333  0.66667  0.64396  Biso   1.000  O
  O3       1.0000 0.33333  0.66667  0.21538  Biso   1.000  O
  O4       1.0000 0.00000  0.00000  0.17747  Biso   1.000  O
  O5       1.0000 0.66667  0.33333  0.39173  Biso   1.000  O
  O6       1.0000 0.33333  0.66667  0.07254  Biso   1.000  O
  O7       1.0000 0.00000  0.00000  0.46318  Biso   1.000  O
  O8       1.0000 0.66667  0.33333  0.82033  Biso   1.000  O
  O9       1.0000 0.66667  0.33333  0.53460  Biso   1.000  O
  O10      1.0000 0.66667  0.33333  0.10604  Biso   1.000  O
  O11      1.0000 0.66667  0.33333  0.89174  Biso   1.000  O
  O12      1.0000 0.66667  0.33333  0.96318  Biso   1.000  O
  O13      1.0000 0.00000  0.00000  0.32033  Biso   1.000  O
  O14      1.0000 0.66667  0.33333  0.24890  Biso   1.000  O
  O15      1.0000 0.33333  0.66667  0.14396  Biso   1.000  O
  O16      1.0000 0.33333  0.66667  0.57254  Biso   1.000  O
  O17      1.0000 0.33333  0.66667  0.35824  Biso   1.000  O
  O18      1.0000 0.33333  0.66667  0.00112  Biso   1.000  O
  O19      1.0000 0.33333  0.66667  0.78681  Biso   1.000  O
  O20      1.0000 0.33333  0.66667  0.28681  Biso   1.000  O
  O21      1.0000 0.00000  0.00000  0.85825  Biso   1.000  O
  O22      1.0000 0.66667  0.33333  0.67746  Biso   1.000  O
  O23      1.0000 0.00000  0.00000  0.03461  Biso   1.000  O
  O24      1.0000 0.33333  0.66667  0.50112  Biso   1.000  O
  O25      1.0000 0.66667  0.33333  0.74890  Biso   1.000  O
  O26      1.0000 0.00000  0.00000  0.71540  Biso   1.000  O
  O27      1.0000 0.33333  0.66667  0.42968  Biso   1.000  O
  O28      1.0000 0.00000  0.00000  0.60604  Biso   1.000  O
