data_image0
_cell_length_a       5.41926
_cell_length_b       5.41925
_cell_length_c       130.454
_cell_angle_alpha    90
_cell_angle_beta     90
_cell_angle_gamma    120

_symmetry_space_group_name_H-M    "P 1"
_symmetry_int_tables_number       1

loop_
  _symmetry_equiv_pos_as_xyz
  'x, y, z'

loop_
  _atom_site_label
  _atom_site_occupancy
  _atom_site_fract_x
  _atom_site_fract_y
  _atom_site_fract_z
  _atom_site_thermal_displace_type
  _atom_site_B_iso_or_equiv
  _atom_site_type_symbol
  Ir1      1.0000 0.00000  0.00000  0.48539  Biso   1.000  Ir
  Ir2      1.0000 0.66667  0.33333  0.72055  Biso   1.000  Ir
  Ir3      1.0000 0.00000  0.00000  0.36765  Biso   1.000  Ir
  Ir4      1.0000 0.66667  0.33333  0.66177  Biso   1.000  Ir
  Ir5      1.0000 0.66667  0.33333  0.95582  Biso   1.000  Ir
  Ir6      1.0000 0.33333  0.66667  0.83822  Biso   1.000  Ir
  Ir7      1.0000 0.66667  0.33333  0.54414  Biso   1.000  Ir
  Ir8      1.0000 0.66667  0.33333  0.89708  Biso   1.000  Ir
  Ir9      1.0000 0.66667  0.33333  0.30884  Biso   1.000  Ir
  Ir10     1.0000 0.00000  0.00000  0.24996  Biso   1.000  Ir
  Ir11     1.0000 0.00000  0.00000  0.13237  Biso   1.000  Ir
  Ir12     1.0000 0.00000  0.00000  0.01473  Biso   1.000  Ir
  Ir13     1.0000 0.00000  0.00000  0.60292  Biso   1.000  Ir
  Ir14     1.0000 0.66667  0.33333  0.07353  Biso   1.000  Ir
  Ir15     1.0000 0.66667  0.33333  0.42645  Biso   1.000  Ir
  Ir16     1.0000 0.66667  0.33333  0.77939  Biso   1.000  Ir
  Ir17     1.0000 0.66667  0.33333  0.19118  Biso   1.000  Ir
  O1       1.0000 0.33333  0.66667  0.32204  Biso   1.000  O
  O2       1.0000 0.33333  0.66667  0.43967  Biso   1.000  O
  O3       1.0000 0.33333  0.66667  0.55734  Biso   1.000  O
  O4       1.0000 0.00000  0.00000  0.94262  Biso   1.000  O
  O5       1.0000 0.00000  0.00000  0.29563  Biso   1.000  O
  O6       1.0000 0.00000  0.00000  0.88387  Biso   1.000  O
  O7       1.0000 0.33333  0.66667  0.14556  Biso   1.000  O
  O8       1.0000 0.00000  0.00000  0.17798  Biso   1.000  O
  O9       1.0000 0.00000  0.00000  0.64856  Biso   1.000  O
  O10      1.0000 0.66667  0.33333  0.23675  Biso   1.000  O
  O11      1.0000 0.33333  0.66667  0.96903  Biso   1.000  O
  O12      1.0000 0.33333  0.66667  0.20440  Biso   1.000  O
  O13      1.0000 0.66667  0.33333  0.47219  Biso   1.000  O
  O14      1.0000 0.33333  0.66667  0.67498  Biso   1.000  O
  O15      1.0000 0.66667  0.33333  0.11916  Biso   1.000  O
  O16      1.0000 0.33333  0.66667  0.38086  Biso   1.000  O
  O17      1.0000 0.00000  0.00000  0.41325  Biso   1.000  O
  O18      1.0000 0.00000  0.00000  0.06033  Biso   1.000  O
  O19      1.0000 0.66667  0.33333  0.85142  Biso   1.000  O
  O20      1.0000 0.33333  0.66667  0.02793  Biso   1.000  O
  O21      1.0000 0.66667  0.33333  0.00153  Biso   1.000  O
  O22      1.0000 0.00000  0.00000  0.53094  Biso   1.000  O
  O23      1.0000 0.66667  0.33333  0.35445  Biso   1.000  O
  O24      1.0000 0.33333  0.66667  0.61613  Biso   1.000  O
  O25      1.0000 0.00000  0.00000  0.70735  Biso   1.000  O
  O26      1.0000 0.33333  0.66667  0.91029  Biso   1.000  O
  O27      1.0000 0.33333  0.66667  0.08674  Biso   1.000  O
  O28      1.0000 0.33333  0.66667  0.79260  Biso   1.000  O
  O29      1.0000 0.00000  0.00000  0.82502  Biso   1.000  O
  O30      1.0000 0.66667  0.33333  0.58971  Biso   1.000  O
  O31      1.0000 0.00000  0.00000  0.76618  Biso   1.000  O
  O32      1.0000 0.33333  0.66667  0.73377  Biso   1.000  O
  O33      1.0000 0.33333  0.66667  0.26316  Biso   1.000  O
  O34      1.0000 0.33333  0.66667  0.49859  Biso   1.000  O
