data_image0
_cell_length_a       10.6369
_cell_length_b       20.1017
_cell_length_c       5.55719
_cell_angle_alpha    90
_cell_angle_beta     90
_cell_angle_gamma    90

_symmetry_space_group_name_H-M    "P 1"
_symmetry_int_tables_number       1

loop_
  _symmetry_equiv_pos_as_xyz
  'x, y, z'

loop_
  _atom_site_label
  _atom_site_occupancy
  _atom_site_fract_x
  _atom_site_fract_y
  _atom_site_fract_z
  _atom_site_thermal_displace_type
  _atom_site_B_iso_or_equiv
  _atom_site_type_symbol
  O1       1.0000 0.32362  0.43631  0.45282  Biso   1.000  O
  O2       1.0000 0.17638  0.06369  0.45282  Biso   1.000  O
  O3       1.0000 0.07362  0.31369  0.70282  Biso   1.000  O
  O4       1.0000 0.42638  0.18631  0.70282  Biso   1.000  O
  O5       1.0000 0.32362  0.93631  0.95282  Biso   1.000  O
  O6       1.0000 0.17638  0.56369  0.95282  Biso   1.000  O
  O7       1.0000 0.07362  0.81369  0.20282  Biso   1.000  O
  O8       1.0000 0.42638  0.68631  0.20282  Biso   1.000  O
  O9       1.0000 0.82362  0.43631  0.95282  Biso   1.000  O
  O10      1.0000 0.67638  0.06369  0.95282  Biso   1.000  O
  O11      1.0000 0.57362  0.31369  0.20282  Biso   1.000  O
  O12      1.0000 0.92638  0.18631  0.20282  Biso   1.000  O
  O13      1.0000 0.82362  0.93631  0.45282  Biso   1.000  O
  O14      1.0000 0.67638  0.56369  0.45282  Biso   1.000  O
  O15      1.0000 0.57362  0.81369  0.70282  Biso   1.000  O
  O16      1.0000 0.92638  0.68631  0.70282  Biso   1.000  O
  Ir1      1.0000 0.00000  0.50000  0.47075  Biso   1.000  Ir
  Ir2      1.0000 0.25000  0.25000  0.22075  Biso   1.000  Ir
  Ir3      1.0000 0.00000  0.00000  0.97075  Biso   1.000  Ir
  Ir4      1.0000 0.25000  0.75000  0.72075  Biso   1.000  Ir
  Ir5      1.0000 0.50000  0.50000  0.97075  Biso   1.000  Ir
  Ir6      1.0000 0.75000  0.25000  0.72075  Biso   1.000  Ir
  Ir7      1.0000 0.50000  0.00000  0.47075  Biso   1.000  Ir
  Ir8      1.0000 0.75000  0.75000  0.22075  Biso   1.000  Ir
