data_image0
_cell_length_a       16.4138
_cell_length_b       16.4138
_cell_length_c       5.53815
_cell_angle_alpha    90
_cell_angle_beta     90
_cell_angle_gamma    120

_symmetry_space_group_name_H-M    "P 1"
_symmetry_int_tables_number       1

loop_
  _symmetry_equiv_pos_as_xyz
  'x, y, z'

loop_
  _atom_site_label
  _atom_site_occupancy
  _atom_site_fract_x
  _atom_site_fract_y
  _atom_site_fract_z
  _atom_site_thermal_displace_type
  _atom_site_B_iso_or_equiv
  _atom_site_type_symbol
  O1       1.0000 0.50000  0.00000  0.00000  Biso   1.000  O
  O2       1.0000 0.00000  0.50000  0.00000  Biso   1.000  O
  O3       1.0000 0.50000  0.50000  0.00000  Biso   1.000  O
  O4       1.0000 0.00000  0.50000  0.50000  Biso   1.000  O
  O5       1.0000 0.50000  0.00000  0.50000  Biso   1.000  O
  O6       1.0000 0.50000  0.50000  0.50000  Biso   1.000  O
  O7       1.0000 0.80315  0.19685  0.25000  Biso   1.000  O
  O8       1.0000 0.80315  0.60629  0.25000  Biso   1.000  O
  O9       1.0000 0.39371  0.19685  0.25000  Biso   1.000  O
  O10      1.0000 0.19685  0.80315  0.75000  Biso   1.000  O
  O11      1.0000 0.19685  0.39370  0.75000  Biso   1.000  O
  O12      1.0000 0.60630  0.80315  0.75000  Biso   1.000  O
  O13      1.0000 0.60502  0.39498  0.25000  Biso   1.000  O
  O14      1.0000 0.60502  0.21004  0.25000  Biso   1.000  O
  O15      1.0000 0.78996  0.39498  0.25000  Biso   1.000  O
  O16      1.0000 0.39498  0.60502  0.75000  Biso   1.000  O
  O17      1.0000 0.39498  0.78995  0.75000  Biso   1.000  O
  O18      1.0000 0.21005  0.60502  0.75000  Biso   1.000  O
  O19      1.0000 0.40029  0.59971  0.25000  Biso   1.000  O
  O20      1.0000 0.40029  0.80059  0.25000  Biso   1.000  O
  O21      1.0000 0.19941  0.59971  0.25000  Biso   1.000  O
  O22      1.0000 0.59971  0.40029  0.75000  Biso   1.000  O
  O23      1.0000 0.59971  0.19941  0.75000  Biso   1.000  O
  O24      1.0000 0.80059  0.40029  0.75000  Biso   1.000  O
  Ir1      1.0000 0.50722  0.14159  0.02087  Biso   1.000  Ir
  Ir2      1.0000 0.85841  0.36563  0.02087  Biso   1.000  Ir
  Ir3      1.0000 0.63437  0.49278  0.02087  Biso   1.000  Ir
  Ir4      1.0000 0.85841  0.49278  0.47913  Biso   1.000  Ir
  Ir5      1.0000 0.63437  0.14159  0.47913  Biso   1.000  Ir
  Ir6      1.0000 0.50722  0.36563  0.47913  Biso   1.000  Ir
  Ir7      1.0000 0.49278  0.85841  0.97913  Biso   1.000  Ir
  Ir8      1.0000 0.14159  0.63437  0.97913  Biso   1.000  Ir
  Ir9      1.0000 0.36563  0.50722  0.97913  Biso   1.000  Ir
  Ir10     1.0000 0.14159  0.50722  0.52087  Biso   1.000  Ir
  Ir11     1.0000 0.36563  0.85841  0.52087  Biso   1.000  Ir
  Ir12     1.0000 0.49278  0.63437  0.52087  Biso   1.000  Ir
