data_image0
_cell_length_a       13.9477
_cell_length_b       13.9477
_cell_length_c       5.72403
_cell_angle_alpha    90
_cell_angle_beta     90
_cell_angle_gamma    90

_symmetry_space_group_name_H-M    "P 1"
_symmetry_int_tables_number       1

loop_
  _symmetry_equiv_pos_as_xyz
  'x, y, z'

loop_
  _atom_site_label
  _atom_site_occupancy
  _atom_site_fract_x
  _atom_site_fract_y
  _atom_site_fract_z
  _atom_site_thermal_displace_type
  _atom_site_B_iso_or_equiv
  _atom_site_type_symbol
  O1       1.0000 0.98136  0.37501  0.62521  Biso   1.000  O
  O2       1.0000 0.01864  0.62499  0.62521  Biso   1.000  O
  O3       1.0000 0.62499  0.48136  0.87521  Biso   1.000  O
  O4       1.0000 0.37501  0.51864  0.87521  Biso   1.000  O
  O5       1.0000 0.01864  0.12499  0.62479  Biso   1.000  O
  O6       1.0000 0.98136  0.87501  0.62479  Biso   1.000  O
  O7       1.0000 0.87501  0.51864  0.87479  Biso   1.000  O
  O8       1.0000 0.12499  0.48136  0.87479  Biso   1.000  O
  O9       1.0000 0.73174  0.62494  0.12495  Biso   1.000  O
  O10      1.0000 0.26826  0.37506  0.12495  Biso   1.000  O
  O11      1.0000 0.87506  0.73174  0.87495  Biso   1.000  O
  O12      1.0000 0.12494  0.26826  0.87495  Biso   1.000  O
  O13      1.0000 0.76826  0.37506  0.62505  Biso   1.000  O
  O14      1.0000 0.23173  0.62494  0.62505  Biso   1.000  O
  O15      1.0000 0.12494  0.76826  0.37505  Biso   1.000  O
  O16      1.0000 0.87506  0.23173  0.37505  Biso   1.000  O
  O17      1.0000 0.98185  0.37513  0.12465  Biso   1.000  O
  O18      1.0000 0.01815  0.62487  0.12465  Biso   1.000  O
  O19      1.0000 0.62487  0.48185  0.37465  Biso   1.000  O
  O20      1.0000 0.37513  0.51815  0.37465  Biso   1.000  O
  O21      1.0000 0.01815  0.12487  0.12535  Biso   1.000  O
  O22      1.0000 0.98185  0.87513  0.12535  Biso   1.000  O
  O23      1.0000 0.87513  0.51815  0.37535  Biso   1.000  O
  O24      1.0000 0.12487  0.48185  0.37535  Biso   1.000  O
  O25      1.0000 0.73217  0.62492  0.62517  Biso   1.000  O
  O26      1.0000 0.26783  0.37508  0.62517  Biso   1.000  O
  O27      1.0000 0.87508  0.73217  0.37517  Biso   1.000  O
  O28      1.0000 0.12492  0.26783  0.37517  Biso   1.000  O
  O29      1.0000 0.76783  0.37508  0.12483  Biso   1.000  O
  O30      1.0000 0.23217  0.62492  0.12483  Biso   1.000  O
  O31      1.0000 0.12492  0.76783  0.87483  Biso   1.000  O
  O32      1.0000 0.87508  0.23217  0.87483  Biso   1.000  O
  O33      1.0000 0.48136  0.87501  0.12521  Biso   1.000  O
  O34      1.0000 0.51864  0.12499  0.12521  Biso   1.000  O
  O35      1.0000 0.12499  0.98136  0.37521  Biso   1.000  O
  O36      1.0000 0.87501  0.01864  0.37521  Biso   1.000  O
  O37      1.0000 0.51864  0.62499  0.12479  Biso   1.000  O
  O38      1.0000 0.48136  0.37501  0.12479  Biso   1.000  O
  O39      1.0000 0.37501  0.01864  0.37479  Biso   1.000  O
  O40      1.0000 0.62499  0.98136  0.37479  Biso   1.000  O
  O41      1.0000 0.23173  0.12494  0.62495  Biso   1.000  O
  O42      1.0000 0.76826  0.87506  0.62495  Biso   1.000  O
  O43      1.0000 0.37506  0.23173  0.37495  Biso   1.000  O
  O44      1.0000 0.62494  0.76826  0.37495  Biso   1.000  O
  O45      1.0000 0.26826  0.87506  0.12505  Biso   1.000  O
  O46      1.0000 0.73174  0.12494  0.12505  Biso   1.000  O
  O47      1.0000 0.62494  0.26826  0.87505  Biso   1.000  O
  O48      1.0000 0.37506  0.73174  0.87505  Biso   1.000  O
  O49      1.0000 0.48185  0.87513  0.62465  Biso   1.000  O
  O50      1.0000 0.51815  0.12487  0.62465  Biso   1.000  O
  O51      1.0000 0.12487  0.98185  0.87465  Biso   1.000  O
  O52      1.0000 0.87513  0.01815  0.87465  Biso   1.000  O
  O53      1.0000 0.51815  0.62487  0.62535  Biso   1.000  O
  O54      1.0000 0.48185  0.37513  0.62535  Biso   1.000  O
  O55      1.0000 0.37513  0.01815  0.87535  Biso   1.000  O
  O56      1.0000 0.62487  0.98185  0.87535  Biso   1.000  O
  O57      1.0000 0.23217  0.12492  0.12517  Biso   1.000  O
  O58      1.0000 0.76783  0.87508  0.12517  Biso   1.000  O
  O59      1.0000 0.37508  0.23217  0.87517  Biso   1.000  O
  O60      1.0000 0.62492  0.76783  0.87517  Biso   1.000  O
  O61      1.0000 0.26783  0.87508  0.62483  Biso   1.000  O
  O62      1.0000 0.73217  0.12492  0.62483  Biso   1.000  O
  O63      1.0000 0.62492  0.26783  0.37483  Biso   1.000  O
  O64      1.0000 0.37508  0.73217  0.37483  Biso   1.000  O
  Ir1      1.0000 0.62519  0.62511  0.37593  Biso   1.000  Ir
  Ir2      1.0000 0.37481  0.37489  0.37593  Biso   1.000  Ir
  Ir3      1.0000 0.87489  0.62519  0.12593  Biso   1.000  Ir
  Ir4      1.0000 0.12511  0.37481  0.12593  Biso   1.000  Ir
  Ir5      1.0000 0.87481  0.37489  0.37406  Biso   1.000  Ir
  Ir6      1.0000 0.12519  0.62511  0.37406  Biso   1.000  Ir
  Ir7      1.0000 0.12511  0.87481  0.12406  Biso   1.000  Ir
  Ir8      1.0000 0.87489  0.12519  0.12406  Biso   1.000  Ir
  Ir9      1.0000 0.87476  0.37555  0.87581  Biso   1.000  Ir
  Ir10     1.0000 0.12524  0.62445  0.87581  Biso   1.000  Ir
  Ir11     1.0000 0.12445  0.87476  0.62581  Biso   1.000  Ir
  Ir12     1.0000 0.87555  0.12524  0.62581  Biso   1.000  Ir
  Ir13     1.0000 0.62524  0.62445  0.87419  Biso   1.000  Ir
  Ir14     1.0000 0.37476  0.37555  0.87419  Biso   1.000  Ir
  Ir15     1.0000 0.87555  0.62524  0.62419  Biso   1.000  Ir
  Ir16     1.0000 0.12445  0.37476  0.62419  Biso   1.000  Ir
  Ir17     1.0000 0.12519  0.12511  0.87594  Biso   1.000  Ir
  Ir18     1.0000 0.87481  0.87489  0.87594  Biso   1.000  Ir
  Ir19     1.0000 0.37489  0.12519  0.62594  Biso   1.000  Ir
  Ir20     1.0000 0.62511  0.87481  0.62594  Biso   1.000  Ir
  Ir21     1.0000 0.37481  0.87489  0.87406  Biso   1.000  Ir
  Ir22     1.0000 0.62519  0.12511  0.87406  Biso   1.000  Ir
  Ir23     1.0000 0.62511  0.37481  0.62406  Biso   1.000  Ir
  Ir24     1.0000 0.37489  0.62519  0.62406  Biso   1.000  Ir
  Ir25     1.0000 0.37476  0.87555  0.37581  Biso   1.000  Ir
  Ir26     1.0000 0.62524  0.12445  0.37581  Biso   1.000  Ir
  Ir27     1.0000 0.62445  0.37476  0.12581  Biso   1.000  Ir
  Ir28     1.0000 0.37555  0.62524  0.12581  Biso   1.000  Ir
  Ir29     1.0000 0.12524  0.12445  0.37419  Biso   1.000  Ir
  Ir30     1.0000 0.87476  0.87555  0.37419  Biso   1.000  Ir
  Ir31     1.0000 0.37555  0.12524  0.12419  Biso   1.000  Ir
  Ir32     1.0000 0.62445  0.87476  0.12419  Biso   1.000  Ir
