data_image0
_cell_length_a       6.15134
_cell_length_b       10.2448
_cell_length_c       32.5587
_cell_angle_alpha    90
_cell_angle_beta     90
_cell_angle_gamma    90

_symmetry_space_group_name_H-M    "P 1"
_symmetry_int_tables_number       1

loop_
  _symmetry_equiv_pos_as_xyz
  'x, y, z'

loop_
  _atom_site_label
  _atom_site_occupancy
  _atom_site_fract_x
  _atom_site_fract_y
  _atom_site_fract_z
  _atom_site_thermal_displace_type
  _atom_site_B_iso_or_equiv
  _atom_site_type_symbol
  O1       1.0000 0.06546  0.98779  0.19490  Biso   1.000  O
  O2       1.0000 0.43454  0.01222  0.69490  Biso   1.000  O
  O3       1.0000 0.93454  0.48779  0.30510  Biso   1.000  O
  O4       1.0000 0.56546  0.51221  0.80510  Biso   1.000  O
  O5       1.0000 0.56703  0.48838  0.13967  Biso   1.000  O
  O6       1.0000 0.93297  0.51162  0.63967  Biso   1.000  O
  O7       1.0000 0.43297  0.98838  0.36033  Biso   1.000  O
  O8       1.0000 0.06703  0.01162  0.86033  Biso   1.000  O
  O9       1.0000 0.57283  0.00003  0.02853  Biso   1.000  O
  O10      1.0000 0.92717  0.99997  0.52853  Biso   1.000  O
  O11      1.0000 0.42717  0.50003  0.47147  Biso   1.000  O
  O12      1.0000 0.07283  0.49997  0.97147  Biso   1.000  O
  O13      1.0000 0.56416  0.74141  0.08301  Biso   1.000  O
  O14      1.0000 0.93584  0.25859  0.58301  Biso   1.000  O
  O15      1.0000 0.43584  0.24141  0.41699  Biso   1.000  O
  O16      1.0000 0.06416  0.75859  0.91699  Biso   1.000  O
  O17      1.0000 0.41614  0.24589  0.08304  Biso   1.000  O
  O18      1.0000 0.08386  0.75411  0.58304  Biso   1.000  O
  O19      1.0000 0.58386  0.74589  0.41696  Biso   1.000  O
  O20      1.0000 0.91614  0.25411  0.91696  Biso   1.000  O
  O21      1.0000 0.91896  0.23149  0.24957  Biso   1.000  O
  O22      1.0000 0.58104  0.76851  0.74957  Biso   1.000  O
  O23      1.0000 0.08104  0.73149  0.25043  Biso   1.000  O
  O24      1.0000 0.41896  0.26851  0.75043  Biso   1.000  O
  O25      1.0000 0.41417  0.76571  0.17685  Biso   1.000  O
  O26      1.0000 0.08583  0.23429  0.67685  Biso   1.000  O
  O27      1.0000 0.58583  0.26571  0.32315  Biso   1.000  O
  O28      1.0000 0.91417  0.73429  0.82315  Biso   1.000  O
  O29      1.0000 0.25045  0.27419  0.17588  Biso   1.000  O
  O30      1.0000 0.24955  0.72581  0.67588  Biso   1.000  O
  O31      1.0000 0.74955  0.77419  0.32412  Biso   1.000  O
  O32      1.0000 0.75045  0.22581  0.82412  Biso   1.000  O
  O33      1.0000 0.91361  0.71267  0.15636  Biso   1.000  O
  O34      1.0000 0.58639  0.28733  0.65636  Biso   1.000  O
  O35      1.0000 0.08639  0.21267  0.34364  Biso   1.000  O
  O36      1.0000 0.41361  0.78733  0.84364  Biso   1.000  O
  O37      1.0000 0.75094  0.20044  0.15656  Biso   1.000  O
  O38      1.0000 0.74906  0.79956  0.65656  Biso   1.000  O
  O39      1.0000 0.24906  0.70044  0.34344  Biso   1.000  O
  O40      1.0000 0.25094  0.29956  0.84344  Biso   1.000  O
  O41      1.0000 0.41782  0.72659  0.98865  Biso   1.000  O
  O42      1.0000 0.08218  0.27341  0.48865  Biso   1.000  O
  O43      1.0000 0.58218  0.22659  0.51135  Biso   1.000  O
  O44      1.0000 0.91782  0.77341  0.01135  Biso   1.000  O
  O45      1.0000 0.25346  0.21201  0.99047  Biso   1.000  O
  O46      1.0000 0.24654  0.78799  0.49047  Biso   1.000  O
  O47      1.0000 0.74654  0.71201  0.50953  Biso   1.000  O
  O48      1.0000 0.75346  0.28799  0.00953  Biso   1.000  O
  Ir1      1.0000 0.61346  0.67707  0.13884  Biso   1.000  Ir
  Ir2      1.0000 0.88654  0.32293  0.63884  Biso   1.000  Ir
  Ir3      1.0000 0.38654  0.17707  0.36116  Biso   1.000  Ir
  Ir4      1.0000 0.11346  0.82293  0.86116  Biso   1.000  Ir
  Ir5      1.0000 0.49727  0.30231  0.13872  Biso   1.000  Ir
  Ir6      1.0000 0.00273  0.69769  0.63872  Biso   1.000  Ir
  Ir7      1.0000 0.50273  0.80231  0.36128  Biso   1.000  Ir
  Ir8      1.0000 0.99727  0.19769  0.86128  Biso   1.000  Ir
  Ir9      1.0000 0.61663  0.81080  0.02787  Biso   1.000  Ir
  Ir10     1.0000 0.88337  0.18920  0.52787  Biso   1.000  Ir
  Ir11     1.0000 0.38337  0.31080  0.47212  Biso   1.000  Ir
  Ir12     1.0000 0.11663  0.68920  0.97212  Biso   1.000  Ir
  Ir13     1.0000 0.50053  0.18605  0.02787  Biso   1.000  Ir
  Ir14     1.0000 0.99947  0.81395  0.52787  Biso   1.000  Ir
  Ir15     1.0000 0.49947  0.68605  0.47213  Biso   1.000  Ir
  Ir16     1.0000 0.00053  0.31395  0.97213  Biso   1.000  Ir
  Ir17     1.0000 0.11426  0.79943  0.19467  Biso   1.000  Ir
  Ir18     1.0000 0.38574  0.20057  0.69467  Biso   1.000  Ir
  Ir19     1.0000 0.88574  0.29943  0.30533  Biso   1.000  Ir
  Ir20     1.0000 0.61426  0.70057  0.80533  Biso   1.000  Ir
  Ir21     1.0000 0.99647  0.17386  0.19426  Biso   1.000  Ir
  Ir22     1.0000 0.50353  0.82614  0.69426  Biso   1.000  Ir
  Ir23     1.0000 0.00353  0.67386  0.30574  Biso   1.000  Ir
  Ir24     1.0000 0.49647  0.32614  0.80574  Biso   1.000  Ir
