data_image0
_cell_length_a       4.3319
_cell_length_b       4.73931
_cell_length_c       8.21202
_cell_angle_alpha    90.0473
_cell_angle_beta     90.1938
_cell_angle_gamma    90.0251

_symmetry_space_group_name_H-M    "P 1"
_symmetry_int_tables_number       1

loop_
  _symmetry_equiv_pos_as_xyz
  'x, y, z'

loop_
  _atom_site_label
  _atom_site_occupancy
  _atom_site_fract_x
  _atom_site_fract_y
  _atom_site_fract_z
  _atom_site_thermal_displace_type
  _atom_site_B_iso_or_equiv
  _atom_site_type_symbol
  O1       1.0000 0.50325  0.83264  0.83216  Biso   1.000  O
  O2       1.0000 0.00135  0.66585  0.66581  Biso   1.000  O
  O3       1.0000 0.49990  0.33045  0.33190  Biso   1.000  O
  O4       1.0000 0.49813  0.33498  0.66602  Biso   1.000  O
  O5       1.0000 0.50373  0.33519  0.00106  Biso   1.000  O
  O6       1.0000 0.00455  0.16598  0.49783  Biso   1.000  O
  O7       1.0000 0.00264  0.16560  0.83326  Biso   1.000  O
  O8       1.0000 0.50334  0.83187  0.16594  Biso   1.000  O
  O9       1.0000 0.50019  0.83438  0.49862  Biso   1.000  O
  O10      1.0000 0.99916  0.66635  0.99928  Biso   1.000  O
  O11      1.0000 0.00266  0.67161  0.33143  Biso   1.000  O
  O12      1.0000 0.99993  0.17263  0.16634  Biso   1.000  O
  Ir1      1.0000 0.75135  0.99983  0.99842  Biso   1.000  Ir
  Ir2      1.0000 0.75150  0.49820  0.82447  Biso   1.000  Ir
  Ir3      1.0000 0.25139  0.99997  0.67383  Biso   1.000  Ir
  Ir4      1.0000 0.75108  0.00041  0.33980  Biso   1.000  Ir
  Ir5      1.0000 0.25148  0.50361  0.15873  Biso   1.000  Ir
  Ir6      1.0000 0.25061  0.50095  0.49923  Biso   1.000  Ir
