data_image0
_cell_length_a       16.5726
_cell_length_b       27.2288
_cell_length_c       8.51079
_cell_angle_alpha    90
_cell_angle_beta     90
_cell_angle_gamma    90

_symmetry_space_group_name_H-M    "P 1"
_symmetry_int_tables_number       1

loop_
  _symmetry_equiv_pos_as_xyz
  'x, y, z'

loop_
  _atom_site_label
  _atom_site_occupancy
  _atom_site_fract_x
  _atom_site_fract_y
  _atom_site_fract_z
  _atom_site_thermal_displace_type
  _atom_site_B_iso_or_equiv
  _atom_site_type_symbol
  O1       1.0000 0.62696  0.60101  0.68406  Biso   1.000  O
  O2       1.0000 0.37304  0.39899  0.68406  Biso   1.000  O
  O3       1.0000 0.87304  0.10101  0.31594  Biso   1.000  O
  O4       1.0000 0.12696  0.89899  0.31594  Biso   1.000  O
  O5       1.0000 0.87304  0.89899  0.31594  Biso   1.000  O
  O6       1.0000 0.12696  0.10101  0.31594  Biso   1.000  O
  O7       1.0000 0.62696  0.39899  0.68406  Biso   1.000  O
  O8       1.0000 0.37304  0.60101  0.68406  Biso   1.000  O
  O9       1.0000 0.63862  0.71938  0.68708  Biso   1.000  O
  O10      1.0000 0.36138  0.28062  0.68708  Biso   1.000  O
  O11      1.0000 0.86138  0.21938  0.31292  Biso   1.000  O
  O12      1.0000 0.13862  0.78062  0.31292  Biso   1.000  O
  O13      1.0000 0.86138  0.78062  0.31292  Biso   1.000  O
  O14      1.0000 0.13862  0.21938  0.31292  Biso   1.000  O
  O15      1.0000 0.63862  0.28062  0.68708  Biso   1.000  O
  O16      1.0000 0.36138  0.71938  0.68708  Biso   1.000  O
  O17      1.0000 0.68557  0.65903  0.37819  Biso   1.000  O
  O18      1.0000 0.31443  0.34097  0.37819  Biso   1.000  O
  O19      1.0000 0.81443  0.15903  0.62181  Biso   1.000  O
  O20      1.0000 0.18557  0.84097  0.62181  Biso   1.000  O
  O21      1.0000 0.81443  0.84097  0.62181  Biso   1.000  O
  O22      1.0000 0.18557  0.15903  0.62181  Biso   1.000  O
  O23      1.0000 0.68557  0.34097  0.37819  Biso   1.000  O
  O24      1.0000 0.31443  0.65903  0.37819  Biso   1.000  O
  O25      1.0000 0.00000  0.16547  0.51594  Biso   1.000  O
  O26      1.0000 0.00000  0.83453  0.51594  Biso   1.000  O
  O27      1.0000 0.50000  0.66547  0.48406  Biso   1.000  O
  O28      1.0000 0.50000  0.33453  0.48406  Biso   1.000  O
  O29      1.0000 0.68222  0.60189  0.04744  Biso   1.000  O
  O30      1.0000 0.31778  0.39811  0.04744  Biso   1.000  O
  O31      1.0000 0.81778  0.10189  0.95256  Biso   1.000  O
  O32      1.0000 0.18222  0.89811  0.95256  Biso   1.000  O
  O33      1.0000 0.81778  0.89811  0.95256  Biso   1.000  O
  O34      1.0000 0.18222  0.10189  0.95256  Biso   1.000  O
  O35      1.0000 0.68222  0.39811  0.04744  Biso   1.000  O
  O36      1.0000 0.31778  0.60189  0.04744  Biso   1.000  O
  O37      1.0000 0.00000  0.07280  0.04223  Biso   1.000  O
  O38      1.0000 0.00000  0.92720  0.04223  Biso   1.000  O
  O39      1.0000 0.50000  0.57280  0.95777  Biso   1.000  O
  O40      1.0000 0.50000  0.42720  0.95777  Biso   1.000  O
  O41      1.0000 0.85241  0.00000  0.12748  Biso   1.000  O
  O42      1.0000 0.14759  0.00000  0.12748  Biso   1.000  O
  O43      1.0000 0.64759  0.50000  0.87252  Biso   1.000  O
  O44      1.0000 0.35241  0.50000  0.87252  Biso   1.000  O
  O45      1.0000 0.00000  0.27988  0.12749  Biso   1.000  O
  O46      1.0000 0.00000  0.72012  0.12749  Biso   1.000  O
  O47      1.0000 0.50000  0.77988  0.87251  Biso   1.000  O
  O48      1.0000 0.50000  0.22012  0.87251  Biso   1.000  O
  O49      1.0000 0.62877  0.71596  0.06584  Biso   1.000  O
  O50      1.0000 0.37123  0.28404  0.06584  Biso   1.000  O
  O51      1.0000 0.87123  0.21596  0.93416  Biso   1.000  O
  O52      1.0000 0.12877  0.78404  0.93416  Biso   1.000  O
  O53      1.0000 0.87123  0.78404  0.93416  Biso   1.000  O
  O54      1.0000 0.12877  0.21596  0.93416  Biso   1.000  O
  O55      1.0000 0.62877  0.28404  0.06584  Biso   1.000  O
  O56      1.0000 0.37123  0.71596  0.06584  Biso   1.000  O
  O57      1.0000 0.68408  0.81518  0.88878  Biso   1.000  O
  O58      1.0000 0.31592  0.18482  0.88878  Biso   1.000  O
  O59      1.0000 0.81592  0.31518  0.11122  Biso   1.000  O
  O60      1.0000 0.18408  0.68481  0.11122  Biso   1.000  O
  O61      1.0000 0.81592  0.68481  0.11122  Biso   1.000  O
  O62      1.0000 0.18408  0.31518  0.11122  Biso   1.000  O
  O63      1.0000 0.68408  0.18482  0.88878  Biso   1.000  O
  O64      1.0000 0.31592  0.81518  0.88878  Biso   1.000  O
  Ir1      1.0000 0.61265  0.66124  0.55829  Biso   1.000  Ir
  Ir2      1.0000 0.38735  0.33876  0.55829  Biso   1.000  Ir
  Ir3      1.0000 0.88735  0.16124  0.44171  Biso   1.000  Ir
  Ir4      1.0000 0.11265  0.83876  0.44171  Biso   1.000  Ir
  Ir5      1.0000 0.88735  0.83876  0.44171  Biso   1.000  Ir
  Ir6      1.0000 0.11265  0.16124  0.44171  Biso   1.000  Ir
  Ir7      1.0000 0.61265  0.33876  0.55829  Biso   1.000  Ir
  Ir8      1.0000 0.38735  0.66124  0.55829  Biso   1.000  Ir
  Ir9      1.0000 0.61415  0.56903  0.89037  Biso   1.000  Ir
  Ir10     1.0000 0.38585  0.43097  0.89037  Biso   1.000  Ir
  Ir11     1.0000 0.88585  0.06903  0.10963  Biso   1.000  Ir
  Ir12     1.0000 0.11415  0.93097  0.10963  Biso   1.000  Ir
  Ir13     1.0000 0.88585  0.93097  0.10963  Biso   1.000  Ir
  Ir14     1.0000 0.11415  0.06903  0.10963  Biso   1.000  Ir
  Ir15     1.0000 0.61415  0.43097  0.89037  Biso   1.000  Ir
  Ir16     1.0000 0.38585  0.56903  0.89037  Biso   1.000  Ir
  Ir17     1.0000 0.61287  0.75757  0.87818  Biso   1.000  Ir
  Ir18     1.0000 0.38713  0.24243  0.87818  Biso   1.000  Ir
  Ir19     1.0000 0.88713  0.25757  0.12182  Biso   1.000  Ir
  Ir20     1.0000 0.11287  0.74243  0.12182  Biso   1.000  Ir
  Ir21     1.0000 0.88713  0.74243  0.12182  Biso   1.000  Ir
  Ir22     1.0000 0.11287  0.25757  0.12182  Biso   1.000  Ir
  Ir23     1.0000 0.61287  0.24243  0.87818  Biso   1.000  Ir
  Ir24     1.0000 0.38713  0.75757  0.87818  Biso   1.000  Ir
  Ir25     1.0000 0.70291  0.66548  0.15068  Biso   1.000  Ir
  Ir26     1.0000 0.29709  0.33452  0.15068  Biso   1.000  Ir
  Ir27     1.0000 0.79709  0.16548  0.84932  Biso   1.000  Ir
  Ir28     1.0000 0.20291  0.83452  0.84932  Biso   1.000  Ir
  Ir29     1.0000 0.79709  0.83452  0.84932  Biso   1.000  Ir
  Ir30     1.0000 0.20291  0.16548  0.84932  Biso   1.000  Ir
  Ir31     1.0000 0.70291  0.33452  0.15068  Biso   1.000  Ir
  Ir32     1.0000 0.29709  0.66548  0.15068  Biso   1.000  Ir
