data_image0
_cell_length_a       5.41881
_cell_length_b       5.41881
_cell_length_c       91.8721
_cell_angle_alpha    90
_cell_angle_beta     90
_cell_angle_gamma    120

_symmetry_space_group_name_H-M    "P 1"
_symmetry_int_tables_number       1

loop_
  _symmetry_equiv_pos_as_xyz
  'x, y, z'

loop_
  _atom_site_label
  _atom_site_occupancy
  _atom_site_fract_x
  _atom_site_fract_y
  _atom_site_fract_z
  _atom_site_thermal_displace_type
  _atom_site_B_iso_or_equiv
  _atom_site_type_symbol
  Ir1      1.0000 0.00000  0.00000  0.02086  Biso   1.000  Ir
  Ir2      1.0000 0.00000  0.00000  0.18753  Biso   1.000  Ir
  Ir3      1.0000 0.33333  0.66667  0.10415  Biso   1.000  Ir
  Ir4      1.0000 0.33333  0.66667  0.60415  Biso   1.000  Ir
  Ir5      1.0000 0.33333  0.66667  0.85417  Biso   1.000  Ir
  Ir6      1.0000 0.33333  0.66667  0.52084  Biso   1.000  Ir
  Ir7      1.0000 0.00000  0.00000  0.77082  Biso   1.000  Ir
  Ir8      1.0000 0.33333  0.66667  0.27082  Biso   1.000  Ir
  Ir9      1.0000 0.33333  0.66667  0.35416  Biso   1.000  Ir
  Ir10     1.0000 0.00000  0.00000  0.43750  Biso   1.000  Ir
  Ir11     1.0000 0.33333  0.66667  0.93750  Biso   1.000  Ir
  Ir12     1.0000 0.33333  0.66667  0.68751  Biso   1.000  Ir
  O1       1.0000 0.33333  0.66667  0.16876  Biso   1.000  O
  O2       1.0000 0.00000  0.00000  0.58541  Biso   1.000  O
  O3       1.0000 0.66667  0.33333  0.78957  Biso   1.000  O
  O4       1.0000 0.00000  0.00000  0.33542  Biso   1.000  O
  O5       1.0000 0.33333  0.66667  0.41873  Biso   1.000  O
  O6       1.0000 0.00000  0.00000  0.08541  Biso   1.000  O
  O7       1.0000 0.66667  0.33333  0.45625  Biso   1.000  O
  O8       1.0000 0.66667  0.33333  0.20627  Biso   1.000  O
  O9       1.0000 0.66667  0.33333  0.95624  Biso   1.000  O
  O10      1.0000 0.00000  0.00000  0.83543  Biso   1.000  O
  O11      1.0000 0.00000  0.00000  0.91876  Biso   1.000  O
  O12      1.0000 0.00000  0.00000  0.50210  Biso   1.000  O
  O13      1.0000 0.66667  0.33333  0.53959  Biso   1.000  O
  O14      1.0000 0.66667  0.33333  0.12290  Biso   1.000  O
  O15      1.0000 0.66667  0.33333  0.03961  Biso   1.000  O
  O16      1.0000 0.33333  0.66667  0.00210  Biso   1.000  O
  O17      1.0000 0.66667  0.33333  0.28957  Biso   1.000  O
  O18      1.0000 0.66667  0.33333  0.37290  Biso   1.000  O
  O19      1.0000 0.66667  0.33333  0.62290  Biso   1.000  O
  O20      1.0000 0.66667  0.33333  0.70625  Biso   1.000  O
  O21      1.0000 0.33333  0.66667  0.75205  Biso   1.000  O
  O22      1.0000 0.00000  0.00000  0.66876  Biso   1.000  O
  O23      1.0000 0.00000  0.00000  0.25208  Biso   1.000  O
  O24      1.0000 0.66667  0.33333  0.87292  Biso   1.000  O
