data_image0
_cell_length_a       10.972
_cell_length_b       10.972
_cell_length_c       9.86133
_cell_angle_alpha    90
_cell_angle_beta     90
_cell_angle_gamma    90

_symmetry_space_group_name_H-M    "P 1"
_symmetry_int_tables_number       1

loop_
  _symmetry_equiv_pos_as_xyz
  'x, y, z'

loop_
  _atom_site_label
  _atom_site_occupancy
  _atom_site_fract_x
  _atom_site_fract_y
  _atom_site_fract_z
  _atom_site_thermal_displace_type
  _atom_site_B_iso_or_equiv
  _atom_site_type_symbol
  O1       1.0000 0.62979  0.12979  0.00000  Biso   1.000  O
  O2       1.0000 0.37021  0.87021  0.00000  Biso   1.000  O
  O3       1.0000 0.37021  0.12979  0.50000  Biso   1.000  O
  O4       1.0000 0.62979  0.87021  0.50000  Biso   1.000  O
  O5       1.0000 0.87021  0.37021  0.50000  Biso   1.000  O
  O6       1.0000 0.12979  0.62979  0.50000  Biso   1.000  O
  O7       1.0000 0.12979  0.37021  0.00000  Biso   1.000  O
  O8       1.0000 0.87021  0.62979  0.00000  Biso   1.000  O
  O9       1.0000 0.82322  0.91602  0.94407  Biso   1.000  O
  O10      1.0000 0.17678  0.08398  0.94407  Biso   1.000  O
  O11      1.0000 0.58398  0.32322  0.44407  Biso   1.000  O
  O12      1.0000 0.41602  0.67678  0.44407  Biso   1.000  O
  O13      1.0000 0.17678  0.91602  0.55593  Biso   1.000  O
  O14      1.0000 0.82322  0.08398  0.55593  Biso   1.000  O
  O15      1.0000 0.41602  0.32322  0.05593  Biso   1.000  O
  O16      1.0000 0.58398  0.67678  0.05593  Biso   1.000  O
  O17      1.0000 0.67678  0.58398  0.55593  Biso   1.000  O
  O18      1.0000 0.32322  0.41602  0.55593  Biso   1.000  O
  O19      1.0000 0.91602  0.17678  0.05593  Biso   1.000  O
  O20      1.0000 0.08398  0.82322  0.05593  Biso   1.000  O
  O21      1.0000 0.32322  0.58398  0.94407  Biso   1.000  O
  O22      1.0000 0.67678  0.41602  0.94407  Biso   1.000  O
  O23      1.0000 0.08398  0.17678  0.44407  Biso   1.000  O
  O24      1.0000 0.91602  0.82322  0.44407  Biso   1.000  O
  O25      1.0000 0.76121  0.00000  0.25000  Biso   1.000  O
  O26      1.0000 0.23879  0.00000  0.25000  Biso   1.000  O
  O27      1.0000 0.50000  0.26121  0.75000  Biso   1.000  O
  O28      1.0000 0.50000  0.73879  0.75000  Biso   1.000  O
  O29      1.0000 0.73879  0.50000  0.25000  Biso   1.000  O
  O30      1.0000 0.26121  0.50000  0.25000  Biso   1.000  O
  O31      1.0000 0.00000  0.23879  0.75000  Biso   1.000  O
  O32      1.0000 0.00000  0.76121  0.75000  Biso   1.000  O
  Ir1      1.0000 0.28243  0.55539  0.43719  Biso   1.000  Ir
  Ir2      1.0000 0.71757  0.44460  0.43719  Biso   1.000  Ir
  Ir3      1.0000 0.94461  0.78243  0.93719  Biso   1.000  Ir
  Ir4      1.0000 0.05540  0.21757  0.93719  Biso   1.000  Ir
  Ir5      1.0000 0.71757  0.55539  0.06281  Biso   1.000  Ir
  Ir6      1.0000 0.28243  0.44460  0.06281  Biso   1.000  Ir
  Ir7      1.0000 0.05540  0.78243  0.56281  Biso   1.000  Ir
  Ir8      1.0000 0.94461  0.21757  0.56281  Biso   1.000  Ir
  Ir9      1.0000 0.21757  0.94461  0.06281  Biso   1.000  Ir
  Ir10     1.0000 0.78243  0.05540  0.06281  Biso   1.000  Ir
  Ir11     1.0000 0.55539  0.71757  0.56281  Biso   1.000  Ir
  Ir12     1.0000 0.44460  0.28243  0.56281  Biso   1.000  Ir
  Ir13     1.0000 0.78243  0.94461  0.43719  Biso   1.000  Ir
  Ir14     1.0000 0.21757  0.05540  0.43719  Biso   1.000  Ir
  Ir15     1.0000 0.44460  0.71757  0.93719  Biso   1.000  Ir
  Ir16     1.0000 0.55539  0.28243  0.93719  Biso   1.000  Ir
