data_image0
_cell_length_a       7.04255
_cell_length_b       7.04255
_cell_length_c       15.6595
_cell_angle_alpha    90
_cell_angle_beta     90
_cell_angle_gamma    90

_symmetry_space_group_name_H-M    "P 1"
_symmetry_int_tables_number       1

loop_
  _symmetry_equiv_pos_as_xyz
  'x, y, z'

loop_
  _atom_site_label
  _atom_site_occupancy
  _atom_site_fract_x
  _atom_site_fract_y
  _atom_site_fract_z
  _atom_site_thermal_displace_type
  _atom_site_B_iso_or_equiv
  _atom_site_type_symbol
  O1       1.0000 0.74872  0.65802  0.08645  Biso   1.000  O
  O2       1.0000 0.25128  0.34197  0.08645  Biso   1.000  O
  O3       1.0000 0.34197  0.24872  0.33645  Biso   1.000  O
  O4       1.0000 0.65802  0.75128  0.33645  Biso   1.000  O
  O5       1.0000 0.25128  0.84197  0.16355  Biso   1.000  O
  O6       1.0000 0.74872  0.15802  0.16355  Biso   1.000  O
  O7       1.0000 0.15802  0.75128  0.41355  Biso   1.000  O
  O8       1.0000 0.84197  0.24872  0.41355  Biso   1.000  O
  O9       1.0000 0.24872  0.15802  0.58645  Biso   1.000  O
  O10      1.0000 0.75128  0.84197  0.58645  Biso   1.000  O
  O11      1.0000 0.84197  0.74872  0.83645  Biso   1.000  O
  O12      1.0000 0.15802  0.25128  0.83645  Biso   1.000  O
  O13      1.0000 0.75128  0.34197  0.66355  Biso   1.000  O
  O14      1.0000 0.24872  0.65802  0.66355  Biso   1.000  O
  O15      1.0000 0.65802  0.25128  0.91355  Biso   1.000  O
  O16      1.0000 0.34197  0.74872  0.91355  Biso   1.000  O
  Ir1      1.0000 0.50000  0.50000  0.00000  Biso   1.000  Ir
  Ir2      1.0000 0.50000  0.00000  0.25000  Biso   1.000  Ir
  Ir3      1.0000 0.00000  0.00000  0.00000  Biso   1.000  Ir
  Ir4      1.0000 0.00000  0.50000  0.25000  Biso   1.000  Ir
  Ir5      1.0000 0.00000  0.00000  0.50000  Biso   1.000  Ir
  Ir6      1.0000 0.00000  0.50000  0.75000  Biso   1.000  Ir
  Ir7      1.0000 0.50000  0.50000  0.50000  Biso   1.000  Ir
  Ir8      1.0000 0.50000  0.00000  0.75000  Biso   1.000  Ir
