data_image0
_cell_length_a       16.6301
_cell_length_b       16.6301
_cell_length_c       9.30645
_cell_angle_alpha    90
_cell_angle_beta     90
_cell_angle_gamma    90

_symmetry_space_group_name_H-M    "P 1"
_symmetry_int_tables_number       1

loop_
  _symmetry_equiv_pos_as_xyz
  'x, y, z'

loop_
  _atom_site_label
  _atom_site_occupancy
  _atom_site_fract_x
  _atom_site_fract_y
  _atom_site_fract_z
  _atom_site_thermal_displace_type
  _atom_site_B_iso_or_equiv
  _atom_site_type_symbol
  O1       1.0000 0.00000  0.74909  0.37058  Biso   1.000  O
  O2       1.0000 0.00000  0.25091  0.37058  Biso   1.000  O
  O3       1.0000 0.75091  0.50000  0.37058  Biso   1.000  O
  O4       1.0000 0.24909  0.50000  0.37058  Biso   1.000  O
  O5       1.0000 0.50000  0.24909  0.62942  Biso   1.000  O
  O6       1.0000 0.50000  0.75091  0.62942  Biso   1.000  O
  O7       1.0000 0.74909  0.00000  0.62942  Biso   1.000  O
  O8       1.0000 0.25091  0.00000  0.62942  Biso   1.000  O
  O9       1.0000 0.68309  0.63959  0.16223  Biso   1.000  O
  O10      1.0000 0.31691  0.36041  0.16223  Biso   1.000  O
  O11      1.0000 0.86041  0.18309  0.16223  Biso   1.000  O
  O12      1.0000 0.13959  0.81691  0.16223  Biso   1.000  O
  O13      1.0000 0.81691  0.13959  0.83777  Biso   1.000  O
  O14      1.0000 0.18309  0.86041  0.83777  Biso   1.000  O
  O15      1.0000 0.63959  0.68309  0.83777  Biso   1.000  O
  O16      1.0000 0.36041  0.31691  0.83777  Biso   1.000  O
  O17      1.0000 0.81691  0.86041  0.83777  Biso   1.000  O
  O18      1.0000 0.18309  0.13959  0.83777  Biso   1.000  O
  O19      1.0000 0.63959  0.31691  0.83777  Biso   1.000  O
  O20      1.0000 0.36041  0.68309  0.83777  Biso   1.000  O
  O21      1.0000 0.68309  0.36041  0.16223  Biso   1.000  O
  O22      1.0000 0.31691  0.63959  0.16223  Biso   1.000  O
  O23      1.0000 0.86041  0.81691  0.16223  Biso   1.000  O
  O24      1.0000 0.13959  0.18309  0.16223  Biso   1.000  O
  O25      1.0000 0.64176  0.64176  0.50000  Biso   1.000  O
  O26      1.0000 0.35824  0.35824  0.50000  Biso   1.000  O
  O27      1.0000 0.85824  0.14176  0.50000  Biso   1.000  O
  O28      1.0000 0.14176  0.85824  0.50000  Biso   1.000  O
  O29      1.0000 0.85824  0.85824  0.50000  Biso   1.000  O
  O30      1.0000 0.14176  0.14176  0.50000  Biso   1.000  O
  O31      1.0000 0.64176  0.35824  0.50000  Biso   1.000  O
  O32      1.0000 0.35824  0.64176  0.50000  Biso   1.000  O
  O33      1.0000 0.17786  0.67786  0.39180  Biso   1.000  O
  O34      1.0000 0.82214  0.32214  0.39180  Biso   1.000  O
  O35      1.0000 0.82214  0.67786  0.39180  Biso   1.000  O
  O36      1.0000 0.17786  0.32214  0.39180  Biso   1.000  O
  O37      1.0000 0.32214  0.17786  0.60820  Biso   1.000  O
  O38      1.0000 0.67786  0.82214  0.60820  Biso   1.000  O
  O39      1.0000 0.67786  0.17786  0.60820  Biso   1.000  O
  O40      1.0000 0.32214  0.82214  0.60820  Biso   1.000  O
  O41      1.0000 0.00000  0.12944  0.94241  Biso   1.000  O
  O42      1.0000 0.00000  0.87056  0.94241  Biso   1.000  O
  O43      1.0000 0.37056  0.50000  0.94241  Biso   1.000  O
  O44      1.0000 0.62944  0.50000  0.94241  Biso   1.000  O
  O45      1.0000 0.50000  0.62944  0.05759  Biso   1.000  O
  O46      1.0000 0.50000  0.37056  0.05759  Biso   1.000  O
  O47      1.0000 0.12944  0.00000  0.05759  Biso   1.000  O
  O48      1.0000 0.87056  0.00000  0.05759  Biso   1.000  O
  Ir1      1.0000 0.72427  0.61470  0.35576  Biso   1.000  Ir
  Ir2      1.0000 0.27573  0.38530  0.35576  Biso   1.000  Ir
  Ir3      1.0000 0.88530  0.22427  0.35576  Biso   1.000  Ir
  Ir4      1.0000 0.11470  0.77573  0.35576  Biso   1.000  Ir
  Ir5      1.0000 0.77573  0.11470  0.64423  Biso   1.000  Ir
  Ir6      1.0000 0.22427  0.88530  0.64423  Biso   1.000  Ir
  Ir7      1.0000 0.61470  0.72427  0.64423  Biso   1.000  Ir
  Ir8      1.0000 0.38530  0.27573  0.64423  Biso   1.000  Ir
  Ir9      1.0000 0.77573  0.88530  0.64423  Biso   1.000  Ir
  Ir10     1.0000 0.22427  0.11470  0.64423  Biso   1.000  Ir
  Ir11     1.0000 0.61470  0.27573  0.64423  Biso   1.000  Ir
  Ir12     1.0000 0.38530  0.72427  0.64423  Biso   1.000  Ir
  Ir13     1.0000 0.72427  0.38530  0.35576  Biso   1.000  Ir
  Ir14     1.0000 0.27573  0.61470  0.35576  Biso   1.000  Ir
  Ir15     1.0000 0.88530  0.77573  0.35576  Biso   1.000  Ir
  Ir16     1.0000 0.11470  0.22427  0.35576  Biso   1.000  Ir
  Ir17     1.0000 0.11296  0.11296  0.00000  Biso   1.000  Ir
  Ir18     1.0000 0.88704  0.88704  0.00000  Biso   1.000  Ir
  Ir19     1.0000 0.38704  0.61296  0.00000  Biso   1.000  Ir
  Ir20     1.0000 0.61296  0.38704  0.00000  Biso   1.000  Ir
  Ir21     1.0000 0.38704  0.38704  0.00000  Biso   1.000  Ir
  Ir22     1.0000 0.61296  0.61296  0.00000  Biso   1.000  Ir
  Ir23     1.0000 0.11296  0.88704  0.00000  Biso   1.000  Ir
  Ir24     1.0000 0.88704  0.11296  0.00000  Biso   1.000  Ir
