data_image0
_cell_length_a       15.7248
_cell_length_b       15.7248
_cell_length_c       18.8555
_cell_angle_alpha    90
_cell_angle_beta     90
_cell_angle_gamma    120

_symmetry_space_group_name_H-M    "P 1"
_symmetry_int_tables_number       1

loop_
  _symmetry_equiv_pos_as_xyz
  'x, y, z'

loop_
  _atom_site_label
  _atom_site_occupancy
  _atom_site_fract_x
  _atom_site_fract_y
  _atom_site_fract_z
  _atom_site_thermal_displace_type
  _atom_site_B_iso_or_equiv
  _atom_site_type_symbol
  Ir1      1.0000 0.33333  0.66667  0.46022  Biso   1.000  Ir
  Ir2      1.0000 0.66652  0.99940  0.12435  Biso   1.000  Ir
  Ir3      1.0000 0.00060  0.66712  0.12435  Biso   1.000  Ir
  Ir4      1.0000 0.33288  0.33348  0.12435  Biso   1.000  Ir
  Ir5      1.0000 0.66750  0.66686  0.09037  Biso   1.000  Ir
  Ir6      1.0000 0.33314  0.00063  0.09037  Biso   1.000  Ir
  Ir7      1.0000 0.99937  0.33250  0.09037  Biso   1.000  Ir
  Ir8      1.0000 0.33333  0.66667  0.12707  Biso   1.000  Ir
  Ir9      1.0000 0.33333  0.66667  0.80126  Biso   1.000  Ir
  Ir10     1.0000 0.00000  0.00000  0.79355  Biso   1.000  Ir
  Ir11     1.0000 0.33319  0.33273  0.45768  Biso   1.000  Ir
  Ir12     1.0000 0.66727  0.00046  0.45768  Biso   1.000  Ir
  Ir13     1.0000 0.99954  0.66681  0.45768  Biso   1.000  Ir
  Ir14     1.0000 0.33416  0.00020  0.42370  Biso   1.000  Ir
  Ir15     1.0000 0.99980  0.33396  0.42370  Biso   1.000  Ir
  Ir16     1.0000 0.66604  0.66584  0.42370  Biso   1.000  Ir
  Ir17     1.0000 0.00000  0.00000  0.46040  Biso   1.000  Ir
  Ir18     1.0000 0.00000  0.00000  0.13460  Biso   1.000  Ir
  Ir19     1.0000 0.66667  0.33333  0.12689  Biso   1.000  Ir
  Ir20     1.0000 0.99985  0.66607  0.79101  Biso   1.000  Ir
  Ir21     1.0000 0.33394  0.33379  0.79101  Biso   1.000  Ir
  Ir22     1.0000 0.66621  0.00015  0.79101  Biso   1.000  Ir
  Ir23     1.0000 0.00083  0.33353  0.75704  Biso   1.000  Ir
  Ir24     1.0000 0.66647  0.66730  0.75704  Biso   1.000  Ir
  Ir25     1.0000 0.33270  0.99917  0.75704  Biso   1.000  Ir
  Ir26     1.0000 0.66667  0.33333  0.79373  Biso   1.000  Ir
  Ir27     1.0000 0.66667  0.33333  0.46793  Biso   1.000  Ir
  O1       1.0000 0.76816  0.56692  0.20193  Biso   1.000  O
  O2       1.0000 0.43308  0.20124  0.20193  Biso   1.000  O
  O3       1.0000 0.79876  0.23184  0.20193  Biso   1.000  O
  O4       1.0000 0.76201  0.86527  0.20398  Biso   1.000  O
  O5       1.0000 0.13473  0.89673  0.20398  Biso   1.000  O
  O6       1.0000 0.10327  0.23800  0.20398  Biso   1.000  O
  O7       1.0000 0.57816  0.12743  0.36266  Biso   1.000  O
  O8       1.0000 0.87257  0.45073  0.36266  Biso   1.000  O
  O9       1.0000 0.54927  0.42184  0.36266  Biso   1.000  O
  O10      1.0000 0.54431  0.78675  0.35974  Biso   1.000  O
  O11      1.0000 0.21325  0.75756  0.35974  Biso   1.000  O
  O12      1.0000 0.24244  0.45569  0.35974  Biso   1.000  O
  O13      1.0000 0.46576  0.56500  0.20190  Biso   1.000  O
  O14      1.0000 0.43501  0.90077  0.20190  Biso   1.000  O
  O15      1.0000 0.09923  0.53424  0.20190  Biso   1.000  O
  O16      1.0000 0.54462  0.78567  0.02622  Biso   1.000  O
  O17      1.0000 0.21433  0.75895  0.02622  Biso   1.000  O
  O18      1.0000 0.24105  0.45538  0.02622  Biso   1.000  O
  O19      1.0000 0.43483  0.90026  0.53526  Biso   1.000  O
  O20      1.0000 0.09974  0.53457  0.53526  Biso   1.000  O
  O21      1.0000 0.46543  0.56517  0.53526  Biso   1.000  O
  O22      1.0000 0.42867  0.19860  0.53731  Biso   1.000  O
  O23      1.0000 0.80140  0.23007  0.53731  Biso   1.000  O
  O24      1.0000 0.76993  0.57133  0.53731  Biso   1.000  O
  O25      1.0000 0.24482  0.46076  0.69600  Biso   1.000  O
  O26      1.0000 0.53924  0.78406  0.69600  Biso   1.000  O
  O27      1.0000 0.21594  0.75518  0.69600  Biso   1.000  O
  O28      1.0000 0.21098  0.12008  0.69307  Biso   1.000  O
  O29      1.0000 0.87992  0.09089  0.69307  Biso   1.000  O
  O30      1.0000 0.90911  0.78902  0.69307  Biso   1.000  O
  O31      1.0000 0.13243  0.89833  0.53524  Biso   1.000  O
  O32      1.0000 0.10167  0.23410  0.53524  Biso   1.000  O
  O33      1.0000 0.76590  0.86757  0.53524  Biso   1.000  O
  O34      1.0000 0.21129  0.11900  0.35955  Biso   1.000  O
  O35      1.0000 0.88100  0.09229  0.35955  Biso   1.000  O
  O36      1.0000 0.90771  0.78871  0.35955  Biso   1.000  O
  O37      1.0000 0.10150  0.23359  0.86860  Biso   1.000  O
  O38      1.0000 0.76641  0.86791  0.86860  Biso   1.000  O
  O39      1.0000 0.13209  0.89850  0.86860  Biso   1.000  O
  O40      1.0000 0.09534  0.53194  0.87064  Biso   1.000  O
  O41      1.0000 0.46806  0.56340  0.87064  Biso   1.000  O
  O42      1.0000 0.43660  0.90466  0.87064  Biso   1.000  O
  O43      1.0000 0.91149  0.79409  0.02933  Biso   1.000  O
  O44      1.0000 0.20591  0.11740  0.02933  Biso   1.000  O
  O45      1.0000 0.88260  0.08851  0.02933  Biso   1.000  O
  O46      1.0000 0.87764  0.45342  0.02641  Biso   1.000  O
  O47      1.0000 0.54658  0.42423  0.02641  Biso   1.000  O
  O48      1.0000 0.57577  0.12236  0.02641  Biso   1.000  O
  O49      1.0000 0.79910  0.23166  0.86857  Biso   1.000  O
  O50      1.0000 0.76834  0.56743  0.86857  Biso   1.000  O
  O51      1.0000 0.43257  0.20090  0.86857  Biso   1.000  O
  O52      1.0000 0.87795  0.45233  0.69288  Biso   1.000  O
  O53      1.0000 0.54767  0.42562  0.69288  Biso   1.000  O
  O54      1.0000 0.57438  0.12205  0.69288  Biso   1.000  O
