data_image0
_cell_length_a       5.66574
_cell_length_b       5.66574
_cell_length_c       6.44219
_cell_angle_alpha    90
_cell_angle_beta     90
_cell_angle_gamma    120

_symmetry_space_group_name_H-M    "P 1"
_symmetry_int_tables_number       1

loop_
  _symmetry_equiv_pos_as_xyz
  'x, y, z'

loop_
  _atom_site_label
  _atom_site_occupancy
  _atom_site_fract_x
  _atom_site_fract_y
  _atom_site_fract_z
  _atom_site_thermal_displace_type
  _atom_site_B_iso_or_equiv
  _atom_site_type_symbol
  O1       1.0000 0.95325  0.63416  0.09881  Biso   1.000  O
  O2       1.0000 0.36584  0.31909  0.76548  Biso   1.000  O
  O3       1.0000 0.68091  0.04675  0.43214  Biso   1.000  O
  O4       1.0000 0.63416  0.95325  0.90119  Biso   1.000  O
  O5       1.0000 0.31909  0.36584  0.23452  Biso   1.000  O
  O6       1.0000 0.04675  0.68091  0.56786  Biso   1.000  O
  Ir1      1.0000 0.44688  0.00000  0.66667  Biso   1.000  Ir
  Ir2      1.0000 0.00000  0.44688  0.33333  Biso   1.000  Ir
  Ir3      1.0000 0.55312  0.55312  0.00000  Biso   1.000  Ir
