data_image0
_cell_length_a       12.03
_cell_length_b       6.14615
_cell_length_c       9.64435
_cell_angle_alpha    90
_cell_angle_beta     106.969
_cell_angle_gamma    90

_symmetry_space_group_name_H-M    "P 1"
_symmetry_int_tables_number       1

loop_
  _symmetry_equiv_pos_as_xyz
  'x, y, z'

loop_
  _atom_site_label
  _atom_site_occupancy
  _atom_site_fract_x
  _atom_site_fract_y
  _atom_site_fract_z
  _atom_site_thermal_displace_type
  _atom_site_B_iso_or_equiv
  _atom_site_type_symbol
  O1       1.0000 0.81635  0.87824  0.95632  Biso   1.000  O
  O2       1.0000 0.18365  0.37824  0.54368  Biso   1.000  O
  O3       1.0000 0.18365  0.12176  0.04368  Biso   1.000  O
  O4       1.0000 0.81635  0.62176  0.45632  Biso   1.000  O
  O5       1.0000 0.30777  0.08812  0.83942  Biso   1.000  O
  O6       1.0000 0.69223  0.58812  0.66058  Biso   1.000  O
  O7       1.0000 0.69223  0.91188  0.16058  Biso   1.000  O
  O8       1.0000 0.30777  0.41188  0.33942  Biso   1.000  O
  O9       1.0000 0.53701  0.47609  0.83705  Biso   1.000  O
  O10      1.0000 0.46299  0.97609  0.66295  Biso   1.000  O
  O11      1.0000 0.46299  0.52391  0.16295  Biso   1.000  O
  O12      1.0000 0.53701  0.02391  0.33705  Biso   1.000  O
  O13      1.0000 0.07349  0.67846  0.81477  Biso   1.000  O
  O14      1.0000 0.92651  0.17846  0.68523  Biso   1.000  O
  O15      1.0000 0.92651  0.32154  0.18523  Biso   1.000  O
  O16      1.0000 0.07349  0.82154  0.31477  Biso   1.000  O
  Ir1      1.0000 0.12390  0.02121  0.84662  Biso   1.000  Ir
  Ir2      1.0000 0.87610  0.52121  0.65338  Biso   1.000  Ir
  Ir3      1.0000 0.87610  0.97879  0.15338  Biso   1.000  Ir
  Ir4      1.0000 0.12390  0.47880  0.34662  Biso   1.000  Ir
  Ir5      1.0000 0.62711  0.73073  0.78077  Biso   1.000  Ir
  Ir6      1.0000 0.37289  0.23073  0.71923  Biso   1.000  Ir
  Ir7      1.0000 0.37289  0.26927  0.21923  Biso   1.000  Ir
  Ir8      1.0000 0.62711  0.76927  0.28077  Biso   1.000  Ir
