data_image0
_cell_length_a       5.41543
_cell_length_b       5.41543
_cell_length_c       51.8632
_cell_angle_alpha    90
_cell_angle_beta     90
_cell_angle_gamma    120

_symmetry_space_group_name_H-M    "P 1"
_symmetry_int_tables_number       1

loop_
  _symmetry_equiv_pos_as_xyz
  'x, y, z'

loop_
  _atom_site_label
  _atom_site_occupancy
  _atom_site_fract_x
  _atom_site_fract_y
  _atom_site_fract_z
  _atom_site_thermal_displace_type
  _atom_site_B_iso_or_equiv
  _atom_site_type_symbol
  Ir1      1.0000 0.33333  0.66667  0.17860  Biso   1.000  Ir
  Ir2      1.0000 0.33333  0.66667  0.75002  Biso   1.000  Ir
  Ir3      1.0000 0.33333  0.66667  0.89283  Biso   1.000  Ir
  Ir4      1.0000 0.00000  0.00000  0.32141  Biso   1.000  Ir
  Ir5      1.0000 0.33333  0.66667  0.46433  Biso   1.000  Ir
  Ir6      1.0000 0.00000  0.00000  0.60711  Biso   1.000  Ir
  Ir7      1.0000 0.00000  0.00000  0.03571  Biso   1.000  Ir
  O1       1.0000 0.00000  0.00000  0.43105  Biso   1.000  O
  O2       1.0000 0.00000  0.00000  0.14531  Biso   1.000  O
  O3       1.0000 0.00000  0.00000  0.85957  Biso   1.000  O
  O4       1.0000 0.66667  0.33333  0.06899  Biso   1.000  O
  O5       1.0000 0.66667  0.33333  0.21188  Biso   1.000  O
  O6       1.0000 0.66667  0.33333  0.35470  Biso   1.000  O
  O7       1.0000 0.66667  0.33333  0.64039  Biso   1.000  O
  O8       1.0000 0.33333  0.66667  0.00246  Biso   1.000  O
  O9       1.0000 0.66667  0.33333  0.78327  Biso   1.000  O
  O10      1.0000 0.66667  0.33333  0.92610  Biso   1.000  O
  O11      1.0000 0.33333  0.66667  0.57378  Biso   1.000  O
  O12      1.0000 0.66667  0.33333  0.49762  Biso   1.000  O
  O13      1.0000 0.00000  0.00000  0.71676  Biso   1.000  O
  O14      1.0000 0.33333  0.66667  0.28811  Biso   1.000  O
