data_image0
_cell_length_a       23.7254
_cell_length_b       23.7254
_cell_length_c       9.0707
_cell_angle_alpha    90
_cell_angle_beta     90
_cell_angle_gamma    90

_symmetry_space_group_name_H-M    "P 1"
_symmetry_int_tables_number       1

loop_
  _symmetry_equiv_pos_as_xyz
  'x, y, z'

loop_
  _atom_site_label
  _atom_site_occupancy
  _atom_site_fract_x
  _atom_site_fract_y
  _atom_site_fract_z
  _atom_site_thermal_displace_type
  _atom_site_B_iso_or_equiv
  _atom_site_type_symbol
  O1       1.0000 0.62147  0.87853  0.75040  Biso   1.000  O
  O2       1.0000 0.37854  0.12147  0.75040  Biso   1.000  O
  O3       1.0000 0.12147  0.62147  0.75040  Biso   1.000  O
  O4       1.0000 0.87853  0.37854  0.75040  Biso   1.000  O
  O5       1.0000 0.62147  0.12147  0.75040  Biso   1.000  O
  O6       1.0000 0.37854  0.87853  0.75040  Biso   1.000  O
  O7       1.0000 0.12147  0.37854  0.75040  Biso   1.000  O
  O8       1.0000 0.87853  0.62147  0.75040  Biso   1.000  O
  O9       1.0000 0.67340  0.50000  0.97298  Biso   1.000  O
  O10      1.0000 0.32660  0.50000  0.97298  Biso   1.000  O
  O11      1.0000 0.50000  0.67340  0.97298  Biso   1.000  O
  O12      1.0000 0.50000  0.32660  0.97298  Biso   1.000  O
  O13      1.0000 0.39713  0.24840  0.86015  Biso   1.000  O
  O14      1.0000 0.60287  0.75160  0.86015  Biso   1.000  O
  O15      1.0000 0.75160  0.39713  0.86015  Biso   1.000  O
  O16      1.0000 0.24840  0.60287  0.86015  Biso   1.000  O
  O17      1.0000 0.39713  0.75160  0.86015  Biso   1.000  O
  O18      1.0000 0.60287  0.24840  0.86015  Biso   1.000  O
  O19      1.0000 0.75160  0.60287  0.86015  Biso   1.000  O
  O20      1.0000 0.24840  0.39713  0.86015  Biso   1.000  O
  O21      1.0000 0.79767  0.79767  0.09299  Biso   1.000  O
  O22      1.0000 0.20233  0.20233  0.09299  Biso   1.000  O
  O23      1.0000 0.20233  0.79767  0.09299  Biso   1.000  O
  O24      1.0000 0.79767  0.20233  0.09299  Biso   1.000  O
  O25      1.0000 0.82199  0.67794  0.25057  Biso   1.000  O
  O26      1.0000 0.17801  0.32206  0.25057  Biso   1.000  O
  O27      1.0000 0.32206  0.82199  0.25057  Biso   1.000  O
  O28      1.0000 0.67794  0.17801  0.25057  Biso   1.000  O
  O29      1.0000 0.82199  0.32206  0.25057  Biso   1.000  O
  O30      1.0000 0.17801  0.67794  0.25057  Biso   1.000  O
  O31      1.0000 0.32206  0.17801  0.25057  Biso   1.000  O
  O32      1.0000 0.67794  0.82199  0.25057  Biso   1.000  O
  O33      1.0000 0.25158  0.89721  0.64095  Biso   1.000  O
  O34      1.0000 0.74842  0.10279  0.64095  Biso   1.000  O
  O35      1.0000 0.10279  0.25158  0.64095  Biso   1.000  O
  O36      1.0000 0.89721  0.74842  0.64095  Biso   1.000  O
  O37      1.0000 0.25158  0.10279  0.64095  Biso   1.000  O
  O38      1.0000 0.74842  0.89721  0.64095  Biso   1.000  O
  O39      1.0000 0.10279  0.74842  0.64095  Biso   1.000  O
  O40      1.0000 0.89721  0.25158  0.64095  Biso   1.000  O
  O41      1.0000 0.21893  0.90803  0.29786  Biso   1.000  O
  O42      1.0000 0.78107  0.09197  0.29786  Biso   1.000  O
  O43      1.0000 0.09197  0.21893  0.29786  Biso   1.000  O
  O44      1.0000 0.90803  0.78107  0.29786  Biso   1.000  O
  O45      1.0000 0.21893  0.09197  0.29786  Biso   1.000  O
  O46      1.0000 0.78107  0.90803  0.29786  Biso   1.000  O
  O47      1.0000 0.09197  0.78107  0.29786  Biso   1.000  O
  O48      1.0000 0.90803  0.21893  0.29786  Biso   1.000  O
  O49      1.0000 0.40103  0.22070  0.51418  Biso   1.000  O
  O50      1.0000 0.59897  0.77930  0.51418  Biso   1.000  O
  O51      1.0000 0.77930  0.40103  0.51418  Biso   1.000  O
  O52      1.0000 0.22070  0.59897  0.51418  Biso   1.000  O
  O53      1.0000 0.40103  0.77930  0.51418  Biso   1.000  O
  O54      1.0000 0.59897  0.22070  0.51418  Biso   1.000  O
  O55      1.0000 0.77930  0.59897  0.51418  Biso   1.000  O
  O56      1.0000 0.22070  0.40103  0.51418  Biso   1.000  O
  O57      1.0000 0.37576  0.37576  0.96164  Biso   1.000  O
  O58      1.0000 0.62424  0.62424  0.96164  Biso   1.000  O
  O59      1.0000 0.62424  0.37576  0.96164  Biso   1.000  O
  O60      1.0000 0.37576  0.62424  0.96164  Biso   1.000  O
  O61      1.0000 0.17336  0.00000  0.52773  Biso   1.000  O
  O62      1.0000 0.82664  0.00000  0.52773  Biso   1.000  O
  O63      1.0000 0.00000  0.17336  0.52773  Biso   1.000  O
  O64      1.0000 0.00000  0.82664  0.52773  Biso   1.000  O
  O65      1.0000 0.17619  0.50000  0.72301  Biso   1.000  O
  O66      1.0000 0.82381  0.50000  0.72301  Biso   1.000  O
  O67      1.0000 0.50000  0.17619  0.72301  Biso   1.000  O
  O68      1.0000 0.50000  0.82381  0.72301  Biso   1.000  O
  O69      1.0000 0.67614  0.00000  0.77828  Biso   1.000  O
  O70      1.0000 0.32386  0.00000  0.77828  Biso   1.000  O
  O71      1.0000 0.00000  0.67614  0.77828  Biso   1.000  O
  O72      1.0000 0.00000  0.32386  0.77828  Biso   1.000  O
  O73      1.0000 0.90094  0.72061  0.98687  Biso   1.000  O
  O74      1.0000 0.09906  0.27939  0.98687  Biso   1.000  O
  O75      1.0000 0.27939  0.90094  0.98687  Biso   1.000  O
  O76      1.0000 0.72061  0.09906  0.98687  Biso   1.000  O
  O77      1.0000 0.90094  0.27939  0.98687  Biso   1.000  O
  O78      1.0000 0.09906  0.72061  0.98687  Biso   1.000  O
  O79      1.0000 0.27939  0.09906  0.98687  Biso   1.000  O
  O80      1.0000 0.72061  0.90094  0.98687  Biso   1.000  O
  O81      1.0000 0.87573  0.87573  0.53928  Biso   1.000  O
  O82      1.0000 0.12427  0.12427  0.53928  Biso   1.000  O
  O83      1.0000 0.12427  0.87573  0.53928  Biso   1.000  O
  O84      1.0000 0.87573  0.12427  0.53928  Biso   1.000  O
  O85      1.0000 0.59191  0.28113  0.20315  Biso   1.000  O
  O86      1.0000 0.40809  0.71887  0.20315  Biso   1.000  O
  O87      1.0000 0.71887  0.59191  0.20315  Biso   1.000  O
  O88      1.0000 0.28113  0.40809  0.20315  Biso   1.000  O
  O89      1.0000 0.59191  0.71887  0.20315  Biso   1.000  O
  O90      1.0000 0.40809  0.28113  0.20315  Biso   1.000  O
  O91      1.0000 0.71887  0.40809  0.20315  Biso   1.000  O
  O92      1.0000 0.28113  0.59191  0.20315  Biso   1.000  O
  O93      1.0000 0.29775  0.29775  0.40808  Biso   1.000  O
  O94      1.0000 0.70225  0.70225  0.40808  Biso   1.000  O
  O95      1.0000 0.70225  0.29775  0.40808  Biso   1.000  O
  O96      1.0000 0.29775  0.70225  0.40808  Biso   1.000  O
  Ir1      1.0000 0.74435  0.14331  0.15725  Biso   1.000  Ir
  Ir2      1.0000 0.25565  0.85669  0.15725  Biso   1.000  Ir
  Ir3      1.0000 0.85669  0.74435  0.15725  Biso   1.000  Ir
  Ir4      1.0000 0.14331  0.25565  0.15725  Biso   1.000  Ir
  Ir5      1.0000 0.74435  0.85669  0.15725  Biso   1.000  Ir
  Ir6      1.0000 0.25565  0.14331  0.15725  Biso   1.000  Ir
  Ir7      1.0000 0.85669  0.25565  0.15725  Biso   1.000  Ir
  Ir8      1.0000 0.14331  0.74435  0.15725  Biso   1.000  Ir
  Ir9      1.0000 0.91904  0.69198  0.78975  Biso   1.000  Ir
  Ir10     1.0000 0.08096  0.30802  0.78975  Biso   1.000  Ir
  Ir11     1.0000 0.30802  0.91904  0.78975  Biso   1.000  Ir
  Ir12     1.0000 0.69198  0.08096  0.78975  Biso   1.000  Ir
  Ir13     1.0000 0.91904  0.30802  0.78975  Biso   1.000  Ir
  Ir14     1.0000 0.08096  0.69198  0.78975  Biso   1.000  Ir
  Ir15     1.0000 0.30802  0.08096  0.78975  Biso   1.000  Ir
  Ir16     1.0000 0.69198  0.91904  0.78975  Biso   1.000  Ir
  Ir17     1.0000 0.64323  0.24442  0.34381  Biso   1.000  Ir
  Ir18     1.0000 0.35677  0.75558  0.34381  Biso   1.000  Ir
  Ir19     1.0000 0.75558  0.64323  0.34381  Biso   1.000  Ir
  Ir20     1.0000 0.24442  0.35677  0.34381  Biso   1.000  Ir
  Ir21     1.0000 0.64323  0.75558  0.34381  Biso   1.000  Ir
  Ir22     1.0000 0.35677  0.24442  0.34381  Biso   1.000  Ir
  Ir23     1.0000 0.75558  0.35677  0.34381  Biso   1.000  Ir
  Ir24     1.0000 0.24442  0.64323  0.34381  Biso   1.000  Ir
  Ir25     1.0000 0.19200  0.41904  0.71130  Biso   1.000  Ir
  Ir26     1.0000 0.80800  0.58096  0.71130  Biso   1.000  Ir
  Ir27     1.0000 0.58096  0.19200  0.71130  Biso   1.000  Ir
  Ir28     1.0000 0.41904  0.80800  0.71130  Biso   1.000  Ir
  Ir29     1.0000 0.19200  0.58096  0.71130  Biso   1.000  Ir
  Ir30     1.0000 0.80800  0.41904  0.71130  Biso   1.000  Ir
  Ir31     1.0000 0.58096  0.80800  0.71130  Biso   1.000  Ir
  Ir32     1.0000 0.41904  0.19200  0.71130  Biso   1.000  Ir
  Ir33     1.0000 0.42021  0.69243  0.99991  Biso   1.000  Ir
  Ir34     1.0000 0.57979  0.30757  0.99991  Biso   1.000  Ir
  Ir35     1.0000 0.30757  0.42021  0.99991  Biso   1.000  Ir
  Ir36     1.0000 0.69243  0.57979  0.99991  Biso   1.000  Ir
  Ir37     1.0000 0.42021  0.30757  0.99991  Biso   1.000  Ir
  Ir38     1.0000 0.57979  0.69243  0.99991  Biso   1.000  Ir
  Ir39     1.0000 0.30757  0.57979  0.99991  Biso   1.000  Ir
  Ir40     1.0000 0.69243  0.42021  0.99991  Biso   1.000  Ir
  Ir41     1.0000 0.07979  0.19244  0.50103  Biso   1.000  Ir
  Ir42     1.0000 0.92021  0.80756  0.50103  Biso   1.000  Ir
  Ir43     1.0000 0.80756  0.07979  0.50103  Biso   1.000  Ir
  Ir44     1.0000 0.19244  0.92021  0.50103  Biso   1.000  Ir
  Ir45     1.0000 0.07979  0.80756  0.50103  Biso   1.000  Ir
  Ir46     1.0000 0.92021  0.19244  0.50103  Biso   1.000  Ir
  Ir47     1.0000 0.80756  0.92021  0.50103  Biso   1.000  Ir
  Ir48     1.0000 0.19244  0.07979  0.50103  Biso   1.000  Ir
