data_image0
_cell_length_a       9.02729
_cell_length_b       6.07734
_cell_length_c       4.51273
_cell_angle_alpha    90
_cell_angle_beta     90.0054
_cell_angle_gamma    90

_symmetry_space_group_name_H-M    "P 1"
_symmetry_int_tables_number       1

loop_
  _symmetry_equiv_pos_as_xyz
  'x, y, z'

loop_
  _atom_site_label
  _atom_site_occupancy
  _atom_site_fract_x
  _atom_site_fract_y
  _atom_site_fract_z
  _atom_site_thermal_displace_type
  _atom_site_B_iso_or_equiv
  _atom_site_type_symbol
  O1       1.0000 0.89985  0.00000  0.20085  Biso   1.000  O
  O2       1.0000 0.10015  0.00000  0.79915  Biso   1.000  O
  O3       1.0000 0.60034  0.00000  0.79951  Biso   1.000  O
  O4       1.0000 0.39966  0.00000  0.20049  Biso   1.000  O
  O5       1.0000 0.64976  0.74969  0.29929  Biso   1.000  O
  O6       1.0000 0.35024  0.74969  0.70071  Biso   1.000  O
  O7       1.0000 0.35024  0.25032  0.70071  Biso   1.000  O
  O8       1.0000 0.64976  0.25032  0.29929  Biso   1.000  O
  O9       1.0000 0.39985  0.50000  0.20085  Biso   1.000  O
  O10      1.0000 0.60015  0.50000  0.79915  Biso   1.000  O
  O11      1.0000 0.10034  0.50000  0.79951  Biso   1.000  O
  O12      1.0000 0.89966  0.50000  0.20049  Biso   1.000  O
  O13      1.0000 0.14976  0.24969  0.29929  Biso   1.000  O
  O14      1.0000 0.85024  0.24969  0.70071  Biso   1.000  O
  O15      1.0000 0.85024  0.75031  0.70071  Biso   1.000  O
  O16      1.0000 0.14976  0.75031  0.29929  Biso   1.000  O
  Ir1      1.0000 0.75192  0.00000  0.49738  Biso   1.000  Ir
  Ir2      1.0000 0.24808  0.00000  0.50262  Biso   1.000  Ir
  Ir3      1.0000 0.50000  0.75220  0.00000  Biso   1.000  Ir
  Ir4      1.0000 0.50000  0.24780  0.00000  Biso   1.000  Ir
  Ir5      1.0000 0.25193  0.50000  0.49738  Biso   1.000  Ir
  Ir6      1.0000 0.74808  0.50000  0.50262  Biso   1.000  Ir
  Ir7      1.0000 0.00000  0.25220  0.00000  Biso   1.000  Ir
  Ir8      1.0000 0.00000  0.74780  0.00000  Biso   1.000  Ir
