data_image0
_cell_length_a       5.36186
_cell_length_b       5.36186
_cell_length_c       55.7933
_cell_angle_alpha    90
_cell_angle_beta     90
_cell_angle_gamma    120

_symmetry_space_group_name_H-M    "P 1"
_symmetry_int_tables_number       1

loop_
  _symmetry_equiv_pos_as_xyz
  'x, y, z'

loop_
  _atom_site_label
  _atom_site_occupancy
  _atom_site_fract_x
  _atom_site_fract_y
  _atom_site_fract_z
  _atom_site_thermal_displace_type
  _atom_site_B_iso_or_equiv
  _atom_site_type_symbol
  Ir1      1.0000 0.33333  0.66667  0.03122  Biso   1.000  Ir
  Ir2      1.0000 0.66667  0.33333  0.15623  Biso   1.000  Ir
  Ir3      1.0000 0.00000  0.00000  0.28128  Biso   1.000  Ir
  Ir4      1.0000 0.33333  0.66667  0.40630  Biso   1.000  Ir
  Ir5      1.0000 0.00000  0.00000  0.53130  Biso   1.000  Ir
  Ir6      1.0000 0.33333  0.66667  0.65629  Biso   1.000  Ir
  Ir7      1.0000 0.00000  0.00000  0.78125  Biso   1.000  Ir
  Ir8      1.0000 0.33333  0.66667  0.90627  Biso   1.000  Ir
  O1       1.0000 0.66667  0.33333  0.00031  Biso   1.000  O
  O2       1.0000 0.00000  0.00000  0.06222  Biso   1.000  O
  O3       1.0000 0.33333  0.66667  0.12532  Biso   1.000  O
  O4       1.0000 0.00000  0.00000  0.18711  Biso   1.000  O
  O5       1.0000 0.66667  0.33333  0.25037  Biso   1.000  O
  O6       1.0000 0.33333  0.66667  0.31218  Biso   1.000  O
  O7       1.0000 0.66667  0.33333  0.37529  Biso   1.000  O
  O8       1.0000 0.00000  0.00000  0.43716  Biso   1.000  O
  O9       1.0000 0.66667  0.33333  0.50031  Biso   1.000  O
  O10      1.0000 0.33333  0.66667  0.56221  Biso   1.000  O
  O11      1.0000 0.66667  0.33333  0.62531  Biso   1.000  O
  O12      1.0000 0.00000  0.00000  0.68716  Biso   1.000  O
  O13      1.0000 0.66667  0.33333  0.75028  Biso   1.000  O
  O14      1.0000 0.33333  0.66667  0.81217  Biso   1.000  O
  O15      1.0000 0.66667  0.33333  0.87528  Biso   1.000  O
  O16      1.0000 0.00000  0.00000  0.93717  Biso   1.000  O
