data_image0
_cell_length_a       16.6993
_cell_length_b       16.6993
_cell_length_c       8.73127
_cell_angle_alpha    90
_cell_angle_beta     90
_cell_angle_gamma    120

_symmetry_space_group_name_H-M    "P 1"
_symmetry_int_tables_number       1

loop_
  _symmetry_equiv_pos_as_xyz
  'x, y, z'

loop_
  _atom_site_label
  _atom_site_occupancy
  _atom_site_fract_x
  _atom_site_fract_y
  _atom_site_fract_z
  _atom_site_thermal_displace_type
  _atom_site_B_iso_or_equiv
  _atom_site_type_symbol
  O1       1.0000 0.50191  0.25095  0.64517  Biso   1.000  O
  O2       1.0000 0.08238  0.91762  0.31184  Biso   1.000  O
  O3       1.0000 0.08238  0.16476  0.31184  Biso   1.000  O
  O4       1.0000 0.16476  0.08238  0.68817  Biso   1.000  O
  O5       1.0000 0.58429  0.16857  0.02150  Biso   1.000  O
  O6       1.0000 0.25095  0.74905  0.35483  Biso   1.000  O
  O7       1.0000 0.24415  0.24415  0.00000  Biso   1.000  O
  O8       1.0000 0.42252  0.33333  0.33333  Biso   1.000  O
  O9       1.0000 0.33333  0.42252  0.66667  Biso   1.000  O
  O10      1.0000 0.42252  0.08919  0.33333  Biso   1.000  O
  O11      1.0000 0.24415  0.00000  0.00000  Biso   1.000  O
  O12      1.0000 0.33333  0.91081  0.66667  Biso   1.000  O
  O13      1.0000 0.16857  0.58429  0.97850  Biso   1.000  O
  O14      1.0000 0.74905  0.25095  0.64517  Biso   1.000  O
  O15      1.0000 0.74905  0.49809  0.64517  Biso   1.000  O
  O16      1.0000 0.83143  0.41571  0.02150  Biso   1.000  O
  O17      1.0000 0.25095  0.50191  0.35483  Biso   1.000  O
  O18      1.0000 0.91762  0.08238  0.68817  Biso   1.000  O
  O19      1.0000 0.91081  0.57748  0.33333  Biso   1.000  O
  O20      1.0000 0.08919  0.66667  0.66667  Biso   1.000  O
  O21      1.0000 0.00000  0.75585  0.00000  Biso   1.000  O
  O22      1.0000 0.08919  0.42252  0.66667  Biso   1.000  O
  O23      1.0000 0.91081  0.33333  0.33333  Biso   1.000  O
  O24      1.0000 0.00000  0.24415  0.00000  Biso   1.000  O
  O25      1.0000 0.83524  0.91762  0.31184  Biso   1.000  O
  O26      1.0000 0.41571  0.58429  0.97850  Biso   1.000  O
  O27      1.0000 0.41571  0.83143  0.97850  Biso   1.000  O
  O28      1.0000 0.49809  0.74905  0.35483  Biso   1.000  O
  O29      1.0000 0.91762  0.83524  0.68817  Biso   1.000  O
  O30      1.0000 0.58429  0.41571  0.02150  Biso   1.000  O
  O31      1.0000 0.57748  0.91081  0.66667  Biso   1.000  O
  O32      1.0000 0.75585  0.00000  0.00000  Biso   1.000  O
  O33      1.0000 0.66667  0.08919  0.33333  Biso   1.000  O
  O34      1.0000 0.75585  0.75585  0.00000  Biso   1.000  O
  O35      1.0000 0.57748  0.66667  0.66667  Biso   1.000  O
  O36      1.0000 0.66667  0.57748  0.33333  Biso   1.000  O
  Ir1      1.0000 0.16718  0.08359  0.16038  Biso   1.000  Ir
  Ir2      1.0000 0.24974  0.75026  0.82705  Biso   1.000  Ir
  Ir3      1.0000 0.24974  0.49949  0.82705  Biso   1.000  Ir
  Ir4      1.0000 0.49949  0.24974  0.17295  Biso   1.000  Ir
  Ir5      1.0000 0.08359  0.16718  0.83962  Biso   1.000  Ir
  Ir6      1.0000 0.08359  0.91641  0.83962  Biso   1.000  Ir
  Ir7      1.0000 0.83385  0.41692  0.49372  Biso   1.000  Ir
  Ir8      1.0000 0.91641  0.08359  0.16038  Biso   1.000  Ir
  Ir9      1.0000 0.91641  0.83282  0.16038  Biso   1.000  Ir
  Ir10     1.0000 0.16615  0.58308  0.50628  Biso   1.000  Ir
  Ir11     1.0000 0.75026  0.50051  0.17295  Biso   1.000  Ir
  Ir12     1.0000 0.75026  0.24974  0.17295  Biso   1.000  Ir
  Ir13     1.0000 0.50051  0.75026  0.82705  Biso   1.000  Ir
  Ir14     1.0000 0.58308  0.41692  0.49372  Biso   1.000  Ir
  Ir15     1.0000 0.58308  0.16615  0.49372  Biso   1.000  Ir
  Ir16     1.0000 0.83282  0.91641  0.83962  Biso   1.000  Ir
  Ir17     1.0000 0.41692  0.83384  0.50628  Biso   1.000  Ir
  Ir18     1.0000 0.41692  0.58308  0.50628  Biso   1.000  Ir
