data_image0
_cell_length_a       14.8928
_cell_length_b       11.8941
_cell_length_c       11.8858
_cell_angle_alpha    90
_cell_angle_beta     90
_cell_angle_gamma    90

_symmetry_space_group_name_H-M    "P 1"
_symmetry_int_tables_number       1

loop_
  _symmetry_equiv_pos_as_xyz
  'x, y, z'

loop_
  _atom_site_label
  _atom_site_occupancy
  _atom_site_fract_x
  _atom_site_fract_y
  _atom_site_fract_z
  _atom_site_thermal_displace_type
  _atom_site_B_iso_or_equiv
  _atom_site_type_symbol
  O1       1.0000 0.70153  0.00000  0.00000  Biso   1.000  O
  O2       1.0000 0.79847  0.00000  0.50000  Biso   1.000  O
  O3       1.0000 0.29847  0.00000  0.00000  Biso   1.000  O
  O4       1.0000 0.20153  0.00000  0.50000  Biso   1.000  O
  O5       1.0000 0.62524  0.70939  0.07681  Biso   1.000  O
  O6       1.0000 0.37476  0.79061  0.57681  Biso   1.000  O
  O7       1.0000 0.37476  0.20939  0.42319  Biso   1.000  O
  O8       1.0000 0.62524  0.29061  0.92319  Biso   1.000  O
  O9       1.0000 0.37476  0.29061  0.92319  Biso   1.000  O
  O10      1.0000 0.62524  0.20939  0.42319  Biso   1.000  O
  O11      1.0000 0.62524  0.79061  0.57681  Biso   1.000  O
  O12      1.0000 0.37476  0.70939  0.07681  Biso   1.000  O
  O13      1.0000 0.50000  0.14699  0.14680  Biso   1.000  O
  O14      1.0000 0.50000  0.35301  0.64680  Biso   1.000  O
  O15      1.0000 0.50000  0.64699  0.35319  Biso   1.000  O
  O16      1.0000 0.50000  0.85301  0.85320  Biso   1.000  O
  O17      1.0000 0.87521  0.92338  0.20989  Biso   1.000  O
  O18      1.0000 0.62479  0.07662  0.70989  Biso   1.000  O
  O19      1.0000 0.62479  0.92338  0.29011  Biso   1.000  O
  O20      1.0000 0.87521  0.07662  0.79011  Biso   1.000  O
  O21      1.0000 0.12479  0.07662  0.79011  Biso   1.000  O
  O22      1.0000 0.37521  0.92338  0.29011  Biso   1.000  O
  O23      1.0000 0.37521  0.07662  0.70989  Biso   1.000  O
  O24      1.0000 0.12479  0.92338  0.20989  Biso   1.000  O
  O25      1.0000 0.20153  0.50000  0.00000  Biso   1.000  O
  O26      1.0000 0.29847  0.50000  0.50000  Biso   1.000  O
  O27      1.0000 0.79847  0.50000  0.00000  Biso   1.000  O
  O28      1.0000 0.70153  0.50000  0.50000  Biso   1.000  O
  O29      1.0000 0.12524  0.20939  0.07681  Biso   1.000  O
  O30      1.0000 0.87476  0.29061  0.57681  Biso   1.000  O
  O31      1.0000 0.87476  0.70939  0.42319  Biso   1.000  O
  O32      1.0000 0.12524  0.79061  0.92319  Biso   1.000  O
  O33      1.0000 0.87476  0.79061  0.92319  Biso   1.000  O
  O34      1.0000 0.12524  0.70939  0.42319  Biso   1.000  O
  O35      1.0000 0.12524  0.29061  0.57681  Biso   1.000  O
  O36      1.0000 0.87476  0.20939  0.07681  Biso   1.000  O
  O37      1.0000 0.00000  0.64699  0.14680  Biso   1.000  O
  O38      1.0000 0.00000  0.85301  0.64680  Biso   1.000  O
  O39      1.0000 0.00000  0.14699  0.35319  Biso   1.000  O
  O40      1.0000 0.00000  0.35301  0.85320  Biso   1.000  O
  O41      1.0000 0.37521  0.42338  0.20989  Biso   1.000  O
  O42      1.0000 0.12479  0.57662  0.70989  Biso   1.000  O
  O43      1.0000 0.12479  0.42338  0.29011  Biso   1.000  O
  O44      1.0000 0.37521  0.57662  0.79011  Biso   1.000  O
  O45      1.0000 0.62479  0.57662  0.79011  Biso   1.000  O
  O46      1.0000 0.87521  0.42338  0.29011  Biso   1.000  O
  O47      1.0000 0.87521  0.57662  0.70989  Biso   1.000  O
  O48      1.0000 0.62479  0.42338  0.20989  Biso   1.000  O
  Ir1      1.0000 0.87406  0.00000  0.00000  Biso   1.000  Ir
  Ir2      1.0000 0.62594  0.00000  0.50000  Biso   1.000  Ir
  Ir3      1.0000 0.12593  0.00000  0.00000  Biso   1.000  Ir
  Ir4      1.0000 0.37406  0.00000  0.50000  Biso   1.000  Ir
  Ir5      1.0000 0.50000  0.35736  0.06652  Biso   1.000  Ir
  Ir6      1.0000 0.50000  0.14264  0.56652  Biso   1.000  Ir
  Ir7      1.0000 0.50000  0.85736  0.43348  Biso   1.000  Ir
  Ir8      1.0000 0.50000  0.64264  0.93348  Biso   1.000  Ir
  Ir9      1.0000 0.50000  0.56661  0.14272  Biso   1.000  Ir
  Ir10     1.0000 0.50000  0.93339  0.64272  Biso   1.000  Ir
  Ir11     1.0000 0.50000  0.06661  0.35728  Biso   1.000  Ir
  Ir12     1.0000 0.50000  0.43339  0.85728  Biso   1.000  Ir
  Ir13     1.0000 0.37406  0.50000  0.00000  Biso   1.000  Ir
  Ir14     1.0000 0.12593  0.50000  0.50000  Biso   1.000  Ir
  Ir15     1.0000 0.62594  0.50000  0.00000  Biso   1.000  Ir
  Ir16     1.0000 0.87406  0.50000  0.50000  Biso   1.000  Ir
  Ir17     1.0000 0.00000  0.85736  0.06652  Biso   1.000  Ir
  Ir18     1.0000 0.00000  0.64264  0.56652  Biso   1.000  Ir
  Ir19     1.0000 0.00000  0.35736  0.43348  Biso   1.000  Ir
  Ir20     1.0000 0.00000  0.14264  0.93348  Biso   1.000  Ir
  Ir21     1.0000 0.00000  0.06661  0.14272  Biso   1.000  Ir
  Ir22     1.0000 0.00000  0.43339  0.64272  Biso   1.000  Ir
  Ir23     1.0000 0.00000  0.56661  0.35728  Biso   1.000  Ir
  Ir24     1.0000 0.00000  0.93339  0.85728  Biso   1.000  Ir
