data_image0
_cell_length_a       19.2266
_cell_length_b       19.3996
_cell_length_c       20.1912
_cell_angle_alpha    73.0112
_cell_angle_beta     69.5451
_cell_angle_gamma    70.0997

_symmetry_space_group_name_H-M    "P 1"
_symmetry_int_tables_number       1

loop_
  _symmetry_equiv_pos_as_xyz
  'x, y, z'

loop_
  _atom_site_label
  _atom_site_occupancy
  _atom_site_fract_x
  _atom_site_fract_y
  _atom_site_fract_z
  _atom_site_thermal_displace_type
  _atom_site_B_iso_or_equiv
  _atom_site_type_symbol
  O1       1.0000 0.71491  0.87022  0.90794  Biso   1.000  O
  O2       1.0000 0.67295  0.79949  0.31212  Biso   1.000  O
  O3       1.0000 0.68058  0.29418  0.19884  Biso   1.000  O
  O4       1.0000 0.46538  0.38733  0.76920  Biso   1.000  O
  O5       1.0000 0.61134  0.20763  0.99823  Biso   1.000  O
  O6       1.0000 0.48591  0.95048  0.40101  Biso   1.000  O
  O7       1.0000 0.59456  0.47951  0.46723  Biso   1.000  O
  O8       1.0000 0.32312  0.75148  0.82528  Biso   1.000  O
  O9       1.0000 0.46434  0.10076  0.70986  Biso   1.000  O
  O10      1.0000 0.48603  0.98913  0.73592  Biso   1.000  O
  O11      1.0000 0.12530  0.94932  0.98497  Biso   1.000  O
  O12      1.0000 0.20354  0.85898  0.67706  Biso   1.000  O
  O13      1.0000 0.27648  0.51834  0.71148  Biso   1.000  O
  O14      1.0000 0.91195  0.88544  0.92134  Biso   1.000  O
  O15      1.0000 0.96966  0.95853  0.51414  Biso   1.000  O
  O16      1.0000 0.21305  0.94191  0.14152  Biso   1.000  O
  O17      1.0000 0.81123  0.87574  0.50144  Biso   1.000  O
  O18      1.0000 0.41282  0.37375  0.05967  Biso   1.000  O
  O19      1.0000 0.77597  0.49074  0.81343  Biso   1.000  O
  O20      1.0000 0.44788  0.99659  0.11898  Biso   1.000  O
  O21      1.0000 0.27222  0.17322  0.55176  Biso   1.000  O
  O22      1.0000 0.19508  0.60812  0.39461  Biso   1.000  O
  O23      1.0000 0.09386  0.36075  0.25046  Biso   1.000  O
  O24      1.0000 0.28600  0.53783  0.34753  Biso   1.000  O
  O25      1.0000 0.36173  0.06829  0.16916  Biso   1.000  O
  O26      1.0000 0.03812  0.54163  0.10537  Biso   1.000  O
  O27      1.0000 0.06245  0.20064  0.53685  Biso   1.000  O
  O28      1.0000 0.89447  0.16338  0.20672  Biso   1.000  O
  Ir1      1.0000 0.76617  0.93007  0.97238  Biso   1.000  Ir
  Ir2      1.0000 0.90222  0.42593  0.72575  Biso   1.000  Ir
  Ir3      1.0000 0.84405  0.33332  0.64103  Biso   1.000  Ir
  Ir4      1.0000 0.54488  0.74178  0.86712  Biso   1.000  Ir
  Ir5      1.0000 0.60882  0.85769  0.42379  Biso   1.000  Ir
  Ir6      1.0000 0.76250  0.22551  0.28752  Biso   1.000  Ir
  Ir7      1.0000 0.72070  0.50647  0.37490  Biso   1.000  Ir
  Ir8      1.0000 0.39414  0.41145  0.67604  Biso   1.000  Ir
  Ir9      1.0000 0.19193  0.77430  0.80119  Biso   1.000  Ir
  Ir10     1.0000 0.20478  0.12495  0.49405  Biso   1.000  Ir
  Ir11     1.0000 0.56133  0.34415  0.01426  Biso   1.000  Ir
  Ir12     1.0000 0.91976  0.84401  0.56095  Biso   1.000  Ir
  Ir13     1.0000 0.14024  0.41937  0.11871  Biso   1.000  Ir
  Ir14     1.0000 0.08756  0.97761  0.11025  Biso   1.000  Ir
