data_image0
_cell_length_a       4.17796
_cell_length_b       6.15467
_cell_length_c       13.9054
_cell_angle_alpha    90
_cell_angle_beta     90
_cell_angle_gamma    90

_symmetry_space_group_name_H-M    "P 1"
_symmetry_int_tables_number       1

loop_
  _symmetry_equiv_pos_as_xyz
  'x, y, z'

loop_
  _atom_site_label
  _atom_site_occupancy
  _atom_site_fract_x
  _atom_site_fract_y
  _atom_site_fract_z
  _atom_site_thermal_displace_type
  _atom_site_B_iso_or_equiv
  _atom_site_type_symbol
  O1       1.0000 0.00000  0.74962  0.00000  Biso   1.000  O
  O2       1.0000 0.00000  0.25038  0.00000  Biso   1.000  O
  O3       1.0000 0.50000  0.00000  0.20204  Biso   1.000  O
  O4       1.0000 0.00000  0.50000  0.29795  Biso   1.000  O
  O5       1.0000 0.50000  0.24962  0.50000  Biso   1.000  O
  O6       1.0000 0.50000  0.75038  0.50000  Biso   1.000  O
  O7       1.0000 0.00000  0.50000  0.70205  Biso   1.000  O
  O8       1.0000 0.50000  0.00000  0.79795  Biso   1.000  O
  Ir1      1.0000 0.50000  0.50000  0.13467  Biso   1.000  Ir
  Ir2      1.0000 0.00000  0.00000  0.36533  Biso   1.000  Ir
  Ir3      1.0000 0.00000  0.00000  0.63467  Biso   1.000  Ir
  Ir4      1.0000 0.50000  0.50000  0.86533  Biso   1.000  Ir
