data_image0
_cell_length_a       8.93267
_cell_length_b       21.5968
_cell_length_c       16.794
_cell_angle_alpha    90
_cell_angle_beta     90
_cell_angle_gamma    90

_symmetry_space_group_name_H-M    "P 1"
_symmetry_int_tables_number       1

loop_
  _symmetry_equiv_pos_as_xyz
  'x, y, z'

loop_
  _atom_site_label
  _atom_site_occupancy
  _atom_site_fract_x
  _atom_site_fract_y
  _atom_site_fract_z
  _atom_site_thermal_displace_type
  _atom_site_B_iso_or_equiv
  _atom_site_type_symbol
  O1       1.0000 0.00000  0.00000  0.00000  Biso   1.000  O
  O2       1.0000 0.00000  0.00000  0.50000  Biso   1.000  O
  O3       1.0000 0.25000  0.25000  0.00000  Biso   1.000  O
  O4       1.0000 0.25000  0.25000  0.50000  Biso   1.000  O
  O5       1.0000 0.75000  0.25000  0.50000  Biso   1.000  O
  O6       1.0000 0.75000  0.25000  0.00000  Biso   1.000  O
  O7       1.0000 0.80919  0.11202  0.48654  Biso   1.000  O
  O8       1.0000 0.69081  0.38798  0.98654  Biso   1.000  O
  O9       1.0000 0.19081  0.11202  0.01346  Biso   1.000  O
  O10      1.0000 0.30919  0.38798  0.51346  Biso   1.000  O
  O11      1.0000 0.69081  0.38798  0.51346  Biso   1.000  O
  O12      1.0000 0.80919  0.11202  0.01346  Biso   1.000  O
  O13      1.0000 0.30919  0.38798  0.98654  Biso   1.000  O
  O14      1.0000 0.19081  0.11202  0.48654  Biso   1.000  O
  O15      1.0000 0.00000  0.34961  0.44559  Biso   1.000  O
  O16      1.0000 0.50000  0.15039  0.94559  Biso   1.000  O
  O17      1.0000 0.00000  0.34961  0.05441  Biso   1.000  O
  O18      1.0000 0.50000  0.15039  0.55441  Biso   1.000  O
  O19      1.0000 0.28547  0.32542  0.33986  Biso   1.000  O
  O20      1.0000 0.21453  0.17458  0.83986  Biso   1.000  O
  O21      1.0000 0.71453  0.32542  0.16014  Biso   1.000  O
  O22      1.0000 0.78547  0.17458  0.66014  Biso   1.000  O
  O23      1.0000 0.21453  0.17458  0.66014  Biso   1.000  O
  O24      1.0000 0.28547  0.32542  0.16014  Biso   1.000  O
  O25      1.0000 0.78547  0.17458  0.83986  Biso   1.000  O
  O26      1.0000 0.71453  0.32542  0.33986  Biso   1.000  O
  O27      1.0000 0.00000  0.08188  0.33726  Biso   1.000  O
  O28      1.0000 0.50000  0.41812  0.83726  Biso   1.000  O
  O29      1.0000 0.00000  0.08188  0.16274  Biso   1.000  O
  O30      1.0000 0.50000  0.41812  0.66274  Biso   1.000  O
  O31      1.0000 0.50000  0.22836  0.25000  Biso   1.000  O
  O32      1.0000 0.00000  0.27165  0.75000  Biso   1.000  O
  O33      1.0000 0.17002  0.19768  0.25000  Biso   1.000  O
  O34      1.0000 0.32998  0.30232  0.75000  Biso   1.000  O
  O35      1.0000 0.82998  0.19768  0.25000  Biso   1.000  O
  O36      1.0000 0.67002  0.30232  0.75000  Biso   1.000  O
  O37      1.0000 0.50000  0.50000  0.00000  Biso   1.000  O
  O38      1.0000 0.50000  0.50000  0.50000  Biso   1.000  O
  O39      1.0000 0.75000  0.75000  0.00000  Biso   1.000  O
  O40      1.0000 0.75000  0.75000  0.50000  Biso   1.000  O
  O41      1.0000 0.25000  0.75000  0.50000  Biso   1.000  O
  O42      1.0000 0.25000  0.75000  0.00000  Biso   1.000  O
  O43      1.0000 0.30919  0.61202  0.48654  Biso   1.000  O
  O44      1.0000 0.19081  0.88798  0.98654  Biso   1.000  O
  O45      1.0000 0.69081  0.61202  0.01346  Biso   1.000  O
  O46      1.0000 0.80919  0.88798  0.51346  Biso   1.000  O
  O47      1.0000 0.19081  0.88798  0.51346  Biso   1.000  O
  O48      1.0000 0.30919  0.61202  0.01346  Biso   1.000  O
  O49      1.0000 0.80919  0.88798  0.98654  Biso   1.000  O
  O50      1.0000 0.69081  0.61202  0.48654  Biso   1.000  O
  O51      1.0000 0.50000  0.84961  0.44559  Biso   1.000  O
  O52      1.0000 0.00000  0.65039  0.94559  Biso   1.000  O
  O53      1.0000 0.50000  0.84961  0.05441  Biso   1.000  O
  O54      1.0000 0.00000  0.65039  0.55441  Biso   1.000  O
  O55      1.0000 0.78547  0.82542  0.33986  Biso   1.000  O
  O56      1.0000 0.71453  0.67458  0.83986  Biso   1.000  O
  O57      1.0000 0.21453  0.82542  0.16014  Biso   1.000  O
  O58      1.0000 0.28547  0.67458  0.66014  Biso   1.000  O
  O59      1.0000 0.71453  0.67458  0.66014  Biso   1.000  O
  O60      1.0000 0.78547  0.82542  0.16014  Biso   1.000  O
  O61      1.0000 0.28547  0.67458  0.83986  Biso   1.000  O
  O62      1.0000 0.21453  0.82542  0.33986  Biso   1.000  O
  O63      1.0000 0.50000  0.58188  0.33726  Biso   1.000  O
  O64      1.0000 0.00000  0.91812  0.83726  Biso   1.000  O
  O65      1.0000 0.50000  0.58188  0.16274  Biso   1.000  O
  O66      1.0000 0.00000  0.91812  0.66274  Biso   1.000  O
  O67      1.0000 0.00000  0.72835  0.25000  Biso   1.000  O
  O68      1.0000 0.50000  0.77165  0.75000  Biso   1.000  O
  O69      1.0000 0.67002  0.69768  0.25000  Biso   1.000  O
  O70      1.0000 0.82998  0.80232  0.75000  Biso   1.000  O
  O71      1.0000 0.32998  0.69768  0.25000  Biso   1.000  O
  O72      1.0000 0.17002  0.80232  0.75000  Biso   1.000  O
  Ir1      1.0000 0.00000  0.07899  0.45235  Biso   1.000  Ir
  Ir2      1.0000 0.50000  0.42101  0.95235  Biso   1.000  Ir
  Ir3      1.0000 0.00000  0.07899  0.04765  Biso   1.000  Ir
  Ir4      1.0000 0.50000  0.42101  0.54765  Biso   1.000  Ir
  Ir5      1.0000 0.20947  0.32788  0.44823  Biso   1.000  Ir
  Ir6      1.0000 0.29053  0.17212  0.94824  Biso   1.000  Ir
  Ir7      1.0000 0.79053  0.32788  0.05176  Biso   1.000  Ir
  Ir8      1.0000 0.70947  0.17212  0.55177  Biso   1.000  Ir
  Ir9      1.0000 0.29053  0.17212  0.55177  Biso   1.000  Ir
  Ir10     1.0000 0.20947  0.32788  0.05176  Biso   1.000  Ir
  Ir11     1.0000 0.70947  0.17212  0.94824  Biso   1.000  Ir
  Ir12     1.0000 0.79053  0.32788  0.44823  Biso   1.000  Ir
  Ir13     1.0000 0.69550  0.26863  0.25000  Biso   1.000  Ir
  Ir14     1.0000 0.80451  0.23137  0.75000  Biso   1.000  Ir
  Ir15     1.0000 0.30451  0.26863  0.25000  Biso   1.000  Ir
  Ir16     1.0000 0.19550  0.23137  0.75000  Biso   1.000  Ir
  Ir17     1.0000 0.00000  0.14075  0.25000  Biso   1.000  Ir
  Ir18     1.0000 0.50000  0.35925  0.75000  Biso   1.000  Ir
  Ir19     1.0000 0.50000  0.57899  0.45235  Biso   1.000  Ir
  Ir20     1.0000 0.00000  0.92101  0.95235  Biso   1.000  Ir
  Ir21     1.0000 0.50000  0.57899  0.04765  Biso   1.000  Ir
  Ir22     1.0000 0.00000  0.92101  0.54765  Biso   1.000  Ir
  Ir23     1.0000 0.70947  0.82788  0.44823  Biso   1.000  Ir
  Ir24     1.0000 0.79053  0.67212  0.94824  Biso   1.000  Ir
  Ir25     1.0000 0.29053  0.82788  0.05176  Biso   1.000  Ir
  Ir26     1.0000 0.20947  0.67212  0.55177  Biso   1.000  Ir
  Ir27     1.0000 0.79053  0.67212  0.55177  Biso   1.000  Ir
  Ir28     1.0000 0.70947  0.82788  0.05176  Biso   1.000  Ir
  Ir29     1.0000 0.20947  0.67212  0.94824  Biso   1.000  Ir
  Ir30     1.0000 0.29053  0.82788  0.44823  Biso   1.000  Ir
  Ir31     1.0000 0.19550  0.76863  0.25000  Biso   1.000  Ir
  Ir32     1.0000 0.30451  0.73137  0.75000  Biso   1.000  Ir
  Ir33     1.0000 0.80451  0.76863  0.25000  Biso   1.000  Ir
  Ir34     1.0000 0.69550  0.73137  0.75000  Biso   1.000  Ir
  Ir35     1.0000 0.50000  0.64075  0.25000  Biso   1.000  Ir
  Ir36     1.0000 0.00000  0.85925  0.75000  Biso   1.000  Ir
