data_image0
_cell_length_a       13.6506
_cell_length_b       11.7528
_cell_length_c       7.41242
_cell_angle_alpha    90
_cell_angle_beta     105.752
_cell_angle_gamma    90

_symmetry_space_group_name_H-M    "P 1"
_symmetry_int_tables_number       1

loop_
  _symmetry_equiv_pos_as_xyz
  'x, y, z'

loop_
  _atom_site_label
  _atom_site_occupancy
  _atom_site_fract_x
  _atom_site_fract_y
  _atom_site_fract_z
  _atom_site_thermal_displace_type
  _atom_site_B_iso_or_equiv
  _atom_site_type_symbol
  O1       1.0000 0.00000  0.28210  0.00000  Biso   1.000  O
  O2       1.0000 0.00000  0.71794  0.00000  Biso   1.000  O
  O3       1.0000 0.88366  0.74998  0.26738  Biso   1.000  O
  O4       1.0000 0.11634  0.74998  0.73262  Biso   1.000  O
  O5       1.0000 0.61625  0.50001  0.23269  Biso   1.000  O
  O6       1.0000 0.38375  0.50001  0.76731  Biso   1.000  O
  O7       1.0000 0.78213  0.25002  0.50004  Biso   1.000  O
  O8       1.0000 0.21787  0.25002  0.49996  Biso   1.000  O
  O9       1.0000 0.50000  0.78210  0.00000  Biso   1.000  O
  O10      1.0000 0.50000  0.21794  0.00000  Biso   1.000  O
  O11      1.0000 0.38366  0.24998  0.26738  Biso   1.000  O
  O12      1.0000 0.61634  0.24998  0.73262  Biso   1.000  O
  O13      1.0000 0.11625  0.00001  0.23269  Biso   1.000  O
  O14      1.0000 0.88375  0.00001  0.76731  Biso   1.000  O
  O15      1.0000 0.28214  0.75002  0.50004  Biso   1.000  O
  O16      1.0000 0.71787  0.75002  0.49996  Biso   1.000  O
  Ir1      1.0000 0.93069  0.80567  0.74997  Biso   1.000  Ir
  Ir2      1.0000 0.06931  0.80567  0.25003  Biso   1.000  Ir
  Ir3      1.0000 0.18063  0.19430  0.24998  Biso   1.000  Ir
  Ir4      1.0000 0.81937  0.19430  0.75002  Biso   1.000  Ir
  Ir5      1.0000 0.43069  0.30567  0.74997  Biso   1.000  Ir
  Ir6      1.0000 0.56931  0.30567  0.25003  Biso   1.000  Ir
  Ir7      1.0000 0.68064  0.69430  0.24998  Biso   1.000  Ir
  Ir8      1.0000 0.31936  0.69430  0.75002  Biso   1.000  Ir
