data_image0
_cell_length_a       15.9837
_cell_length_b       15.9836
_cell_length_c       3.74282
_cell_angle_alpha    90
_cell_angle_beta     90
_cell_angle_gamma    120

_symmetry_space_group_name_H-M    "P 1"
_symmetry_int_tables_number       1

loop_
  _symmetry_equiv_pos_as_xyz
  'x, y, z'

loop_
  _atom_site_label
  _atom_site_occupancy
  _atom_site_fract_x
  _atom_site_fract_y
  _atom_site_fract_z
  _atom_site_thermal_displace_type
  _atom_site_B_iso_or_equiv
  _atom_site_type_symbol
  O1       1.0000 0.29269  0.00000  0.00000  Biso   1.000  O
  O2       1.0000 0.00000  0.29269  0.00000  Biso   1.000  O
  O3       1.0000 0.70731  0.70731  0.00000  Biso   1.000  O
  O4       1.0000 0.70731  0.00000  0.00000  Biso   1.000  O
  O5       1.0000 0.00000  0.70731  0.00000  Biso   1.000  O
  O6       1.0000 0.29269  0.29269  0.00000  Biso   1.000  O
  O7       1.0000 0.56080  0.43920  0.00000  Biso   1.000  O
  O8       1.0000 0.56080  0.12160  0.00000  Biso   1.000  O
  O9       1.0000 0.87840  0.43920  0.00000  Biso   1.000  O
  O10      1.0000 0.43920  0.56080  0.00000  Biso   1.000  O
  O11      1.0000 0.43920  0.87840  0.00000  Biso   1.000  O
  O12      1.0000 0.12160  0.56080  0.00000  Biso   1.000  O
  O13      1.0000 0.77826  0.22174  0.00000  Biso   1.000  O
  O14      1.0000 0.77826  0.55652  0.00000  Biso   1.000  O
  O15      1.0000 0.44348  0.22174  0.00000  Biso   1.000  O
  O16      1.0000 0.22174  0.77826  0.00000  Biso   1.000  O
  O17      1.0000 0.22174  0.44348  0.00000  Biso   1.000  O
  O18      1.0000 0.55652  0.77826  0.00000  Biso   1.000  O
  O19      1.0000 0.40315  0.00000  0.50000  Biso   1.000  O
  O20      1.0000 0.00000  0.40315  0.50000  Biso   1.000  O
  O21      1.0000 0.59685  0.59685  0.50000  Biso   1.000  O
  O22      1.0000 0.59685  0.00000  0.50000  Biso   1.000  O
  O23      1.0000 1.00000  0.59685  0.50000  Biso   1.000  O
  O24      1.0000 0.40315  0.40315  0.50000  Biso   1.000  O
  Ir1      1.0000 0.66656  0.09511  0.15272  Biso   1.000  Ir
  Ir2      1.0000 0.90489  0.57145  0.15272  Biso   1.000  Ir
  Ir3      1.0000 0.42855  0.33344  0.15272  Biso   1.000  Ir
  Ir4      1.0000 0.33344  0.90489  0.15272  Biso   1.000  Ir
  Ir5      1.0000 0.09511  0.42855  0.15272  Biso   1.000  Ir
  Ir6      1.0000 0.57145  0.66656  0.15272  Biso   1.000  Ir
  Ir7      1.0000 0.09511  0.66656  0.84728  Biso   1.000  Ir
  Ir8      1.0000 0.57145  0.90489  0.84728  Biso   1.000  Ir
  Ir9      1.0000 0.33344  0.42855  0.84728  Biso   1.000  Ir
  Ir10     1.0000 0.90489  0.33344  0.84728  Biso   1.000  Ir
  Ir11     1.0000 0.42855  0.09511  0.84728  Biso   1.000  Ir
  Ir12     1.0000 0.66656  0.57145  0.84728  Biso   1.000  Ir
