data_image0
_cell_length_a       4.31142
_cell_length_b       4.33055
_cell_length_c       15.6811
_cell_angle_alpha    90
_cell_angle_beta     90
_cell_angle_gamma    90

_symmetry_space_group_name_H-M    "P 1"
_symmetry_int_tables_number       1

loop_
  _symmetry_equiv_pos_as_xyz
  'x, y, z'

loop_
  _atom_site_label
  _atom_site_occupancy
  _atom_site_fract_x
  _atom_site_fract_y
  _atom_site_fract_z
  _atom_site_thermal_displace_type
  _atom_site_B_iso_or_equiv
  _atom_site_type_symbol
  O1       1.0000 0.00000  0.25000  0.45712  Biso   1.000  O
  O2       1.0000 0.50000  0.25000  0.04288  Biso   1.000  O
  O3       1.0000 0.00000  0.25000  0.29368  Biso   1.000  O
  O4       1.0000 0.50000  0.25000  0.20632  Biso   1.000  O
  O5       1.0000 0.50000  0.75000  0.95712  Biso   1.000  O
  O6       1.0000 0.00000  0.75000  0.54288  Biso   1.000  O
  O7       1.0000 0.50000  0.75000  0.79368  Biso   1.000  O
  O8       1.0000 0.00000  0.75000  0.70632  Biso   1.000  O
  Ir1      1.0000 0.50000  0.75000  0.37478  Biso   1.000  Ir
  Ir2      1.0000 0.00000  0.75000  0.12521  Biso   1.000  Ir
  Ir3      1.0000 0.00000  0.25000  0.87478  Biso   1.000  Ir
  Ir4      1.0000 0.50000  0.25000  0.62521  Biso   1.000  Ir
