data_image0
_cell_length_a       4.706
_cell_length_b       7.14041
_cell_length_c       7.42242
_cell_angle_alpha    90
_cell_angle_beta     90
_cell_angle_gamma    90

_symmetry_space_group_name_H-M    "P 1"
_symmetry_int_tables_number       1

loop_
  _symmetry_equiv_pos_as_xyz
  'x, y, z'

loop_
  _atom_site_label
  _atom_site_occupancy
  _atom_site_fract_x
  _atom_site_fract_y
  _atom_site_fract_z
  _atom_site_thermal_displace_type
  _atom_site_B_iso_or_equiv
  _atom_site_type_symbol
  O1       1.0000 0.24863  0.54997  0.07942  Biso   1.000  O
  O2       1.0000 0.25137  0.45004  0.57942  Biso   1.000  O
  O3       1.0000 0.75137  0.04997  0.42058  Biso   1.000  O
  O4       1.0000 0.74863  0.95003  0.92058  Biso   1.000  O
  O5       1.0000 0.74960  0.31341  0.10891  Biso   1.000  O
  O6       1.0000 0.75040  0.68659  0.60891  Biso   1.000  O
  O7       1.0000 0.25040  0.81341  0.39109  Biso   1.000  O
  O8       1.0000 0.24960  0.18659  0.89109  Biso   1.000  O
  Ir1      1.0000 0.74933  0.73382  0.21188  Biso   1.000  Ir
  Ir2      1.0000 0.75067  0.26618  0.71188  Biso   1.000  Ir
  Ir3      1.0000 0.25067  0.23382  0.28812  Biso   1.000  Ir
  Ir4      1.0000 0.24933  0.76618  0.78812  Biso   1.000  Ir
