data_image0
_cell_length_a       7.56701
_cell_length_b       7.84216
_cell_length_c       74.3458
_cell_angle_alpha    89.5174
_cell_angle_beta     89.5694
_cell_angle_gamma    69.6672

_symmetry_space_group_name_H-M    "P 1"
_symmetry_int_tables_number       1

loop_
  _symmetry_equiv_pos_as_xyz
  'x, y, z'

loop_
  _atom_site_label
  _atom_site_occupancy
  _atom_site_fract_x
  _atom_site_fract_y
  _atom_site_fract_z
  _atom_site_thermal_displace_type
  _atom_site_B_iso_or_equiv
  _atom_site_type_symbol
  O1       1.0000 0.79428  0.75084  0.65347  Biso   1.000  O
  O2       1.0000 0.78125  0.48021  0.55830  Biso   1.000  O
  O3       1.0000 0.79724  0.38624  0.20028  Biso   1.000  O
  O4       1.0000 0.78318  0.10974  0.10666  Biso   1.000  O
  O5       1.0000 0.77673  0.83714  0.01343  Biso   1.000  O
  O6       1.0000 0.71854  0.31575  0.94899  Biso   1.000  O
  O7       1.0000 0.74370  0.03106  0.86014  Biso   1.000  O
  O8       1.0000 0.72431  0.76378  0.76833  Biso   1.000  O
  O9       1.0000 0.83425  0.42398  0.68362  Biso   1.000  O
  O10      1.0000 0.80375  0.19088  0.59086  Biso   1.000  O
  O11      1.0000 0.74831  0.94439  0.49593  Biso   1.000  O
  O12      1.0000 0.75996  0.65522  0.40653  Biso   1.000  O
  O13      1.0000 0.76834  0.37477  0.31705  Biso   1.000  O
  O14      1.0000 0.81984  0.06918  0.23020  Biso   1.000  O
  O15      1.0000 0.81708  0.81383  0.13853  Biso   1.000  O
  O16      1.0000 0.80449  0.55549  0.04668  Biso   1.000  O
  O17      1.0000 0.37388  0.75203  0.98385  Biso   1.000  O
  O18      1.0000 0.43603  0.44547  0.89710  Biso   1.000  O
  O19      1.0000 0.46062  0.17250  0.80717  Biso   1.000  O
  O20      1.0000 0.47447  0.88488  0.71413  Biso   1.000  O
  O21      1.0000 0.42088  0.66287  0.62006  Biso   1.000  O
  O22      1.0000 0.38442  0.40057  0.52743  Biso   1.000  O
  O23      1.0000 0.42507  0.08978  0.44042  Biso   1.000  O
  O24      1.0000 0.43718  0.81300  0.35096  Biso   1.000  O
  O25      1.0000 0.45807  0.53343  0.26145  Biso   1.000  O
  O26      1.0000 0.42381  0.30123  0.16641  Biso   1.000  O
  O27      1.0000 0.39977  0.04010  0.07381  Biso   1.000  O
  O28      1.0000 0.52375  0.17820  0.98220  Biso   1.000  O
  O29      1.0000 0.58482  0.86297  0.89363  Biso   1.000  O
  O30      1.0000 0.59017  0.59881  0.80327  Biso   1.000  O
  O31      1.0000 0.64701  0.28412  0.71428  Biso   1.000  O
  O32      1.0000 0.59520  0.07929  0.62210  Biso   1.000  O
  O33      1.0000 0.53779  0.81976  0.52659  Biso   1.000  O
  O34      1.0000 0.60856  0.48887  0.43841  Biso   1.000  O
  O35      1.0000 0.61437  0.21284  0.34879  Biso   1.000  O
  O36      1.0000 0.66191  0.92817  0.26250  Biso   1.000  O
  O37      1.0000 0.59370  0.72117  0.16950  Biso   1.000  O
  O38      1.0000 0.57694  0.45836  0.07725  Biso   1.000  O
  O39      1.0000 0.19876  0.47259  0.94534  Biso   1.000  O
  O40      1.0000 0.21697  0.19457  0.85907  Biso   1.000  O
  O41      1.0000 0.19529  0.95591  0.77070  Biso   1.000  O
  O42      1.0000 0.24378  0.59715  0.68356  Biso   1.000  O
  O43      1.0000 0.21416  0.35446  0.58932  Biso   1.000  O
  O44      1.0000 0.14014  0.14596  0.49547  Biso   1.000  O
  O45      1.0000 0.16629  0.83927  0.40900  Biso   1.000  O
  O46      1.0000 0.17368  0.56490  0.31936  Biso   1.000  O
  O47      1.0000 0.24053  0.22634  0.23128  Biso   1.000  O
  O48      1.0000 0.22677  0.98026  0.13590  Biso   1.000  O
  O49      1.0000 0.21457  0.71497  0.04344  Biso   1.000  O
  O50      1.0000 0.26622  0.96496  0.93058  Biso   1.000  O
  O51      1.0000 0.27192  0.69435  0.84037  Biso   1.000  O
  O52      1.0000 0.23972  0.42890  0.74647  Biso   1.000  O
  O53      1.0000 0.19633  0.88905  0.55923  Biso   1.000  O
  O54      1.0000 0.20842  0.15637  0.65118  Biso   1.000  O
  O55      1.0000 0.22206  0.35920  0.37873  Biso   1.000  O
  O56      1.0000 0.22834  0.08239  0.28899  Biso   1.000  O
  O57      1.0000 0.21475  0.63411  0.46851  Biso   1.000  O
  O58      1.0000 0.20642  0.79182  0.19804  Biso   1.000  O
  O59      1.0000 0.19484  0.51838  0.10605  Biso   1.000  O
  O60      1.0000 0.18889  0.24431  0.01490  Biso   1.000  O
  Ir1      1.0000 0.02150  0.48196  0.66815  Biso   1.000  Ir
  Ir2      1.0000 0.99836  0.22745  0.57457  Biso   1.000  Ir
  Ir3      1.0000 0.94665  0.98988  0.47984  Biso   1.000  Ir
  Ir4      1.0000 0.96186  0.70909  0.39140  Biso   1.000  Ir
  Ir5      1.0000 0.96981  0.43052  0.30204  Biso   1.000  Ir
  Ir6      1.0000 0.01856  0.11650  0.21502  Biso   1.000  Ir
  Ir7      1.0000 0.00755  0.85187  0.12196  Biso   1.000  Ir
  Ir8      1.0000 0.99542  0.58644  0.02965  Biso   1.000  Ir
  Ir9      1.0000 0.45970  0.42581  0.96664  Biso   1.000  Ir
  Ir10     1.0000 0.50084  0.12936  0.87839  Biso   1.000  Ir
  Ir11     1.0000 0.49705  0.86922  0.78812  Biso   1.000  Ir
  Ir12     1.0000 0.50963  0.32153  0.60547  Biso   1.000  Ir
  Ir13     1.0000 0.54980  0.54995  0.69910  Biso   1.000  Ir
  Ir14     1.0000 0.45484  0.07503  0.51106  Biso   1.000  Ir
  Ir15     1.0000 0.49042  0.76545  0.42345  Biso   1.000  Ir
  Ir16     1.0000 0.54453  0.19059  0.24636  Biso   1.000  Ir
  Ir17     1.0000 0.49739  0.49005  0.33391  Biso   1.000  Ir
  Ir18     1.0000 0.50069  0.69132  0.06008  Biso   1.000  Ir
  Ir19     1.0000 0.51544  0.95521  0.15237  Biso   1.000  Ir
  Ir20     1.0000 0.46418  0.00443  0.99811  Biso   1.000  Ir
  Ir21     1.0000 0.44282  0.49492  0.81837  Biso   1.000  Ir
  Ir22     1.0000 0.43191  0.76133  0.90845  Biso   1.000  Ir
  Ir23     1.0000 0.45733  0.20204  0.72773  Biso   1.000  Ir
  Ir24     1.0000 0.47352  0.64940  0.54267  Biso   1.000  Ir
  Ir25     1.0000 0.52434  0.33848  0.45550  Biso   1.000  Ir
  Ir26     1.0000 0.50268  0.91186  0.63636  Biso   1.000  Ir
  Ir27     1.0000 0.53450  0.06294  0.36615  Biso   1.000  Ir
  Ir28     1.0000 0.55026  0.78201  0.27771  Biso   1.000  Ir
  Ir29     1.0000 0.50305  0.54848  0.18323  Biso   1.000  Ir
  Ir30     1.0000 0.48481  0.28229  0.09050  Biso   1.000  Ir
