data_image0
_cell_length_a       5.44438
_cell_length_b       5.56848
_cell_length_c       5.53948
_cell_angle_alpha    90
_cell_angle_beta     90.0132
_cell_angle_gamma    90

_symmetry_space_group_name_H-M    "P 1"
_symmetry_int_tables_number       1

loop_
  _symmetry_equiv_pos_as_xyz
  'x, y, z'

loop_
  _atom_site_label
  _atom_site_occupancy
  _atom_site_fract_x
  _atom_site_fract_y
  _atom_site_fract_z
  _atom_site_thermal_displace_type
  _atom_site_B_iso_or_equiv
  _atom_site_type_symbol
  Ir1      1.0000 0.00000  0.00000  0.50000  Biso   1.000  Ir
  Ir2      1.0000 0.00000  0.50000  0.00000  Biso   1.000  Ir
  Ir3      1.0000 0.50000  0.00000  0.00000  Biso   1.000  Ir
  Ir4      1.0000 0.50000  0.50000  0.50000  Biso   1.000  Ir
  O1       1.0000 0.61315  0.61196  0.88874  Biso   1.000  O
  O2       1.0000 0.38685  0.11195  0.61126  Biso   1.000  O
  O3       1.0000 0.38685  0.38804  0.11126  Biso   1.000  O
  O4       1.0000 0.61315  0.88804  0.38873  Biso   1.000  O
  O5       1.0000 0.11311  0.88782  0.11154  Biso   1.000  O
  O6       1.0000 0.88689  0.38782  0.38846  Biso   1.000  O
  O7       1.0000 0.88689  0.11218  0.88846  Biso   1.000  O
  O8       1.0000 0.11311  0.61218  0.61154  Biso   1.000  O
