data_image0
_cell_length_a       7.43741
_cell_length_b       4.29366
_cell_length_c       22.4996
_cell_angle_alpha    90
_cell_angle_beta     90.0329
_cell_angle_gamma    90

_symmetry_space_group_name_H-M    "P 1"
_symmetry_int_tables_number       1

loop_
  _symmetry_equiv_pos_as_xyz
  'x, y, z'

loop_
  _atom_site_label
  _atom_site_occupancy
  _atom_site_fract_x
  _atom_site_fract_y
  _atom_site_fract_z
  _atom_site_thermal_displace_type
  _atom_site_B_iso_or_equiv
  _atom_site_type_symbol
  Ir1      1.0000 0.00000  0.00000  0.00000  Biso   1.000  Ir
  Ir2      1.0000 0.33333  0.00000  0.33158  Biso   1.000  Ir
  Ir3      1.0000 0.16667  0.50000  0.66842  Biso   1.000  Ir
  Ir4      1.0000 0.50000  0.50000  0.00000  Biso   1.000  Ir
  Ir5      1.0000 0.83333  0.50000  0.33158  Biso   1.000  Ir
  Ir6      1.0000 0.66667  0.00000  0.66842  Biso   1.000  Ir
  O1       1.0000 0.33333  0.00000  0.07761  Biso   1.000  O
  O2       1.0000 0.16667  0.50000  0.92239  Biso   1.000  O
  O3       1.0000 0.00000  0.00000  0.25410  Biso   1.000  O
  O4       1.0000 0.00000  0.00000  0.74590  Biso   1.000  O
  O5       1.0000 0.16667  0.50000  0.40940  Biso   1.000  O
  O6       1.0000 0.33333  0.00000  0.59060  Biso   1.000  O
  O7       1.0000 0.83333  0.50000  0.07761  Biso   1.000  O
  O8       1.0000 0.66667  0.00000  0.92239  Biso   1.000  O
  O9       1.0000 0.50000  0.50000  0.25410  Biso   1.000  O
  O10      1.0000 0.50000  0.50000  0.74590  Biso   1.000  O
  O11      1.0000 0.66667  0.00000  0.40940  Biso   1.000  O
  O12      1.0000 0.83333  0.50000  0.59060  Biso   1.000  O
