data_image0
_cell_length_a       9.5067
_cell_length_b       9.5067
_cell_length_c       33.3781
_cell_angle_alpha    90
_cell_angle_beta     90
_cell_angle_gamma    90

_symmetry_space_group_name_H-M    "P 1"
_symmetry_int_tables_number       1

loop_
  _symmetry_equiv_pos_as_xyz
  'x, y, z'

loop_
  _atom_site_label
  _atom_site_occupancy
  _atom_site_fract_x
  _atom_site_fract_y
  _atom_site_fract_z
  _atom_site_thermal_displace_type
  _atom_site_B_iso_or_equiv
  _atom_site_type_symbol
  O1       1.0000 0.71960  0.67137  0.29356  Biso   1.000  O
  O2       1.0000 0.28040  0.32863  0.29356  Biso   1.000  O
  O3       1.0000 0.82863  0.71960  0.04356  Biso   1.000  O
  O4       1.0000 0.17137  0.28040  0.04356  Biso   1.000  O
  O5       1.0000 0.78040  0.67137  0.45644  Biso   1.000  O
  O6       1.0000 0.21960  0.32863  0.45644  Biso   1.000  O
  O7       1.0000 0.17137  0.21960  0.20644  Biso   1.000  O
  O8       1.0000 0.82863  0.78040  0.20644  Biso   1.000  O
  O9       1.0000 0.78040  0.32863  0.45644  Biso   1.000  O
  O10      1.0000 0.21960  0.67137  0.45644  Biso   1.000  O
  O11      1.0000 0.17137  0.78040  0.20644  Biso   1.000  O
  O12      1.0000 0.82863  0.21960  0.20644  Biso   1.000  O
  O13      1.0000 0.71960  0.32863  0.29356  Biso   1.000  O
  O14      1.0000 0.28040  0.67137  0.29356  Biso   1.000  O
  O15      1.0000 0.82863  0.28040  0.04356  Biso   1.000  O
  O16      1.0000 0.17137  0.71960  0.04356  Biso   1.000  O
  O17      1.0000 0.50000  0.28471  0.02172  Biso   1.000  O
  O18      1.0000 0.50000  0.71529  0.02172  Biso   1.000  O
  O19      1.0000 0.71529  0.00000  0.27172  Biso   1.000  O
  O20      1.0000 0.28471  0.00000  0.27172  Biso   1.000  O
  O21      1.0000 0.50000  0.78471  0.22828  Biso   1.000  O
  O22      1.0000 0.50000  0.21529  0.22828  Biso   1.000  O
  O23      1.0000 0.78471  0.00000  0.47828  Biso   1.000  O
  O24      1.0000 0.21529  0.00000  0.47828  Biso   1.000  O
  O25      1.0000 0.00000  0.00000  0.06056  Biso   1.000  O
  O26      1.0000 0.00000  0.50000  0.31056  Biso   1.000  O
  O27      1.0000 0.00000  0.50000  0.18944  Biso   1.000  O
  O28      1.0000 0.50000  0.50000  0.43945  Biso   1.000  O
  O29      1.0000 0.00000  0.25000  0.12500  Biso   1.000  O
  O30      1.0000 0.00000  0.75000  0.12500  Biso   1.000  O
  O31      1.0000 0.75000  0.50000  0.37500  Biso   1.000  O
  O32      1.0000 0.25000  0.50000  0.37500  Biso   1.000  O
  O33      1.0000 0.21960  0.17137  0.79356  Biso   1.000  O
  O34      1.0000 0.78040  0.82863  0.79356  Biso   1.000  O
  O35      1.0000 0.32863  0.21960  0.54356  Biso   1.000  O
  O36      1.0000 0.67137  0.78040  0.54356  Biso   1.000  O
  O37      1.0000 0.28040  0.17137  0.95644  Biso   1.000  O
  O38      1.0000 0.71960  0.82863  0.95644  Biso   1.000  O
  O39      1.0000 0.67137  0.71960  0.70644  Biso   1.000  O
  O40      1.0000 0.32863  0.28040  0.70644  Biso   1.000  O
  O41      1.0000 0.28040  0.82863  0.95644  Biso   1.000  O
  O42      1.0000 0.71960  0.17137  0.95644  Biso   1.000  O
  O43      1.0000 0.67137  0.28040  0.70644  Biso   1.000  O
  O44      1.0000 0.32863  0.71960  0.70644  Biso   1.000  O
  O45      1.0000 0.21960  0.82863  0.79356  Biso   1.000  O
  O46      1.0000 0.78040  0.17137  0.79356  Biso   1.000  O
  O47      1.0000 0.32863  0.78040  0.54356  Biso   1.000  O
  O48      1.0000 0.67137  0.21960  0.54356  Biso   1.000  O
  O49      1.0000 0.00000  0.78471  0.52172  Biso   1.000  O
  O50      1.0000 0.00000  0.21529  0.52172  Biso   1.000  O
  O51      1.0000 0.21529  0.50000  0.77172  Biso   1.000  O
  O52      1.0000 0.78471  0.50000  0.77172  Biso   1.000  O
  O53      1.0000 0.00000  0.28471  0.72828  Biso   1.000  O
  O54      1.0000 0.00000  0.71529  0.72828  Biso   1.000  O
  O55      1.0000 0.28471  0.50000  0.97828  Biso   1.000  O
  O56      1.0000 0.71529  0.50000  0.97828  Biso   1.000  O
  O57      1.0000 0.50000  0.50000  0.56056  Biso   1.000  O
  O58      1.0000 0.50000  0.00000  0.81056  Biso   1.000  O
  O59      1.0000 0.50000  0.00000  0.68944  Biso   1.000  O
  O60      1.0000 0.00000  0.00000  0.93944  Biso   1.000  O
  O61      1.0000 0.50000  0.75000  0.62500  Biso   1.000  O
  O62      1.0000 0.50000  0.25000  0.62500  Biso   1.000  O
  O63      1.0000 0.25000  0.00000  0.87500  Biso   1.000  O
  O64      1.0000 0.75000  0.00000  0.87500  Biso   1.000  O
  Ir1      1.0000 0.00000  0.70348  0.18187  Biso   1.000  Ir
  Ir2      1.0000 0.00000  0.29653  0.18187  Biso   1.000  Ir
  Ir3      1.0000 0.29653  0.50000  0.43187  Biso   1.000  Ir
  Ir4      1.0000 0.70348  0.50000  0.43187  Biso   1.000  Ir
  Ir5      1.0000 0.00000  0.20348  0.06813  Biso   1.000  Ir
  Ir6      1.0000 0.00000  0.79653  0.06813  Biso   1.000  Ir
  Ir7      1.0000 0.20348  0.50000  0.31813  Biso   1.000  Ir
  Ir8      1.0000 0.79653  0.50000  0.31813  Biso   1.000  Ir
  Ir9      1.0000 0.69242  0.69242  0.00000  Biso   1.000  Ir
  Ir10     1.0000 0.30758  0.30758  0.00000  Biso   1.000  Ir
  Ir11     1.0000 0.30758  0.19242  0.25000  Biso   1.000  Ir
  Ir12     1.0000 0.69242  0.80758  0.25000  Biso   1.000  Ir
  Ir13     1.0000 0.30758  0.80758  0.25000  Biso   1.000  Ir
  Ir14     1.0000 0.69242  0.19242  0.25000  Biso   1.000  Ir
  Ir15     1.0000 0.69242  0.30758  0.00000  Biso   1.000  Ir
  Ir16     1.0000 0.30758  0.69242  0.00000  Biso   1.000  Ir
  Ir17     1.0000 0.50000  0.20348  0.68187  Biso   1.000  Ir
  Ir18     1.0000 0.50000  0.79653  0.68187  Biso   1.000  Ir
  Ir19     1.0000 0.79653  0.00000  0.93187  Biso   1.000  Ir
  Ir20     1.0000 0.20348  0.00000  0.93187  Biso   1.000  Ir
  Ir21     1.0000 0.50000  0.70348  0.56813  Biso   1.000  Ir
  Ir22     1.0000 0.50000  0.29653  0.56813  Biso   1.000  Ir
  Ir23     1.0000 0.70348  0.00000  0.81813  Biso   1.000  Ir
  Ir24     1.0000 0.29653  0.00000  0.81813  Biso   1.000  Ir
  Ir25     1.0000 0.19242  0.19242  0.50000  Biso   1.000  Ir
  Ir26     1.0000 0.80758  0.80758  0.50000  Biso   1.000  Ir
  Ir27     1.0000 0.80758  0.69242  0.75000  Biso   1.000  Ir
  Ir28     1.0000 0.19242  0.30758  0.75000  Biso   1.000  Ir
  Ir29     1.0000 0.80758  0.30758  0.75000  Biso   1.000  Ir
  Ir30     1.0000 0.19242  0.69242  0.75000  Biso   1.000  Ir
  Ir31     1.0000 0.19242  0.80758  0.50000  Biso   1.000  Ir
  Ir32     1.0000 0.80758  0.19242  0.50000  Biso   1.000  Ir
