data_image0
_cell_length_a       5.42481
_cell_length_b       5.42482
_cell_length_c       211.426
_cell_angle_alpha    90
_cell_angle_beta     90
_cell_angle_gamma    120

_symmetry_space_group_name_H-M    "P 1"
_symmetry_int_tables_number       1

loop_
  _symmetry_equiv_pos_as_xyz
  'x, y, z'

loop_
  _atom_site_label
  _atom_site_occupancy
  _atom_site_fract_x
  _atom_site_fract_y
  _atom_site_fract_z
  _atom_site_thermal_displace_type
  _atom_site_B_iso_or_equiv
  _atom_site_type_symbol
  Ir1      1.0000 0.33333  0.66667  0.56035  Biso   1.000  Ir
  Ir2      1.0000 0.00000  0.00000  0.52586  Biso   1.000  Ir
  Ir3      1.0000 0.00000  0.00000  0.00861  Biso   1.000  Ir
  Ir4      1.0000 0.00000  0.00000  0.90518  Biso   1.000  Ir
  Ir5      1.0000 0.33333  0.66667  0.62931  Biso   1.000  Ir
  Ir6      1.0000 0.33333  0.66667  0.73276  Biso   1.000  Ir
  Ir7      1.0000 0.33333  0.66667  0.45691  Biso   1.000  Ir
  Ir8      1.0000 0.33333  0.66667  0.87070  Biso   1.000  Ir
  Ir9      1.0000 0.00000  0.00000  0.59483  Biso   1.000  Ir
  Ir10     1.0000 0.33333  0.66667  0.49138  Biso   1.000  Ir
  Ir11     1.0000 0.33333  0.66667  0.93966  Biso   1.000  Ir
  Ir12     1.0000 0.00000  0.00000  0.42240  Biso   1.000  Ir
  Ir13     1.0000 0.33333  0.66667  0.11208  Biso   1.000  Ir
  Ir14     1.0000 0.33333  0.66667  0.80172  Biso   1.000  Ir
  Ir15     1.0000 0.00000  0.00000  0.69829  Biso   1.000  Ir
  Ir16     1.0000 0.33333  0.66667  0.66379  Biso   1.000  Ir
  Ir17     1.0000 0.33333  0.66667  0.97413  Biso   1.000  Ir
  Ir18     1.0000 0.33333  0.66667  0.14655  Biso   1.000  Ir
  Ir19     1.0000 0.00000  0.00000  0.18104  Biso   1.000  Ir
  Ir20     1.0000 0.33333  0.66667  0.21552  Biso   1.000  Ir
  Ir21     1.0000 0.33333  0.66667  0.31896  Biso   1.000  Ir
  Ir22     1.0000 0.00000  0.00000  0.25000  Biso   1.000  Ir
  Ir23     1.0000 0.00000  0.00000  0.35345  Biso   1.000  Ir
  Ir24     1.0000 0.33333  0.66667  0.28448  Biso   1.000  Ir
  Ir25     1.0000 0.00000  0.00000  0.07760  Biso   1.000  Ir
  Ir26     1.0000 0.00000  0.00000  0.83622  Biso   1.000  Ir
  Ir27     1.0000 0.33333  0.66667  0.38793  Biso   1.000  Ir
  Ir28     1.0000 0.00000  0.00000  0.76724  Biso   1.000  Ir
  Ir29     1.0000 0.33333  0.66667  0.04310  Biso   1.000  Ir
  O1       1.0000 0.33333  0.66667  0.60294  Biso   1.000  O
  O2       1.0000 0.66667  0.33333  0.34534  Biso   1.000  O
  O3       1.0000 0.66667  0.33333  0.44880  Biso   1.000  O
  O4       1.0000 0.66667  0.33333  0.48327  Biso   1.000  O
  O5       1.0000 0.00000  0.00000  0.32707  Biso   1.000  O
  O6       1.0000 0.00000  0.00000  0.74087  Biso   1.000  O
  O7       1.0000 0.66667  0.33333  0.31085  Biso   1.000  O
  O8       1.0000 0.66667  0.33333  0.24189  Biso   1.000  O
  O9       1.0000 0.00000  0.00000  0.46502  Biso   1.000  O
  O10      1.0000 0.33333  0.66667  0.08570  Biso   1.000  O
  O11      1.0000 0.00000  0.00000  0.56846  Biso   1.000  O
  O12      1.0000 0.66667  0.33333  0.82810  Biso   1.000  O
  O13      1.0000 0.66667  0.33333  0.20741  Biso   1.000  O
  O14      1.0000 0.33333  0.66667  0.70639  Biso   1.000  O
  O15      1.0000 0.66667  0.33333  0.69018  Biso   1.000  O
  O16      1.0000 0.66667  0.33333  0.58672  Biso   1.000  O
  O17      1.0000 0.33333  0.66667  0.91329  Biso   1.000  O
  O18      1.0000 0.00000  0.00000  0.87881  Biso   1.000  O
  O19      1.0000 0.00000  0.00000  0.63742  Biso   1.000  O
  O20      1.0000 0.33333  0.66667  0.77534  Biso   1.000  O
  O21      1.0000 0.00000  0.00000  0.94777  Biso   1.000  O
  O22      1.0000 0.66667  0.33333  0.96602  Biso   1.000  O
  O23      1.0000 0.66667  0.33333  0.62120  Biso   1.000  O
  O24      1.0000 0.00000  0.00000  0.49949  Biso   1.000  O
  O25      1.0000 0.33333  0.66667  0.01672  Biso   1.000  O
  O26      1.0000 0.66667  0.33333  0.93155  Biso   1.000  O
  O27      1.0000 0.33333  0.66667  0.18915  Biso   1.000  O
  O28      1.0000 0.66667  0.33333  0.51775  Biso   1.000  O
  O29      1.0000 0.33333  0.66667  0.53396  Biso   1.000  O
  O30      1.0000 0.66667  0.33333  0.03499  Biso   1.000  O
  O31      1.0000 0.00000  0.00000  0.15465  Biso   1.000  O
  O32      1.0000 0.00000  0.00000  0.12018  Biso   1.000  O
  O33      1.0000 0.66667  0.33333  0.65568  Biso   1.000  O
  O34      1.0000 0.66667  0.33333  0.86259  Biso   1.000  O
  O35      1.0000 0.00000  0.00000  0.98225  Biso   1.000  O
  O36      1.0000 0.33333  0.66667  0.36157  Biso   1.000  O
  O37      1.0000 0.66667  0.33333  0.10396  Biso   1.000  O
  O38      1.0000 0.66667  0.33333  0.89706  Biso   1.000  O
  O39      1.0000 0.00000  0.00000  0.22362  Biso   1.000  O
  O40      1.0000 0.00000  0.00000  0.39603  Biso   1.000  O
  O41      1.0000 0.66667  0.33333  0.27637  Biso   1.000  O
  O42      1.0000 0.66667  0.33333  0.41429  Biso   1.000  O
  O43      1.0000 0.00000  0.00000  0.29259  Biso   1.000  O
  O44      1.0000 0.33333  0.66667  0.25810  Biso   1.000  O
  O45      1.0000 0.33333  0.66667  0.84432  Biso   1.000  O
  O46      1.0000 0.33333  0.66667  0.43051  Biso   1.000  O
  O47      1.0000 0.66667  0.33333  0.55224  Biso   1.000  O
  O48      1.0000 0.66667  0.33333  0.37982  Biso   1.000  O
  O49      1.0000 0.66667  0.33333  0.06948  Biso   1.000  O
  O50      1.0000 0.00000  0.00000  0.05121  Biso   1.000  O
  O51      1.0000 0.00000  0.00000  0.67190  Biso   1.000  O
  O52      1.0000 0.00000  0.00000  0.80983  Biso   1.000  O
  O53      1.0000 0.66667  0.33333  0.13844  Biso   1.000  O
  O54      1.0000 0.66667  0.33333  0.17292  Biso   1.000  O
  O55      1.0000 0.66667  0.33333  0.79360  Biso   1.000  O
  O56      1.0000 0.66667  0.33333  0.00050  Biso   1.000  O
  O57      1.0000 0.66667  0.33333  0.75913  Biso   1.000  O
  O58      1.0000 0.66667  0.33333  0.72465  Biso   1.000  O
