data_image0
_cell_length_a       22.8763
_cell_length_b       18.3042
_cell_length_c       17.3662
_cell_angle_alpha    90
_cell_angle_beta     90
_cell_angle_gamma    90

_symmetry_space_group_name_H-M    "P 1"
_symmetry_int_tables_number       1

loop_
  _symmetry_equiv_pos_as_xyz
  'x, y, z'

loop_
  _atom_site_label
  _atom_site_occupancy
  _atom_site_fract_x
  _atom_site_fract_y
  _atom_site_fract_z
  _atom_site_thermal_displace_type
  _atom_site_B_iso_or_equiv
  _atom_site_type_symbol
  O1       1.0000 0.39489  0.25000  0.76054  Biso   1.000  O
  O2       1.0000 0.60511  0.25000  0.76054  Biso   1.000  O
  O3       1.0000 0.10511  0.25000  0.73946  Biso   1.000  O
  O4       1.0000 0.89489  0.25000  0.73946  Biso   1.000  O
  O5       1.0000 0.12911  0.58382  0.21948  Biso   1.000  O
  O6       1.0000 0.37089  0.41618  0.71948  Biso   1.000  O
  O7       1.0000 0.37089  0.58382  0.28052  Biso   1.000  O
  O8       1.0000 0.62911  0.91618  0.28052  Biso   1.000  O
  O9       1.0000 0.37089  0.91618  0.28052  Biso   1.000  O
  O10      1.0000 0.12911  0.08382  0.78052  Biso   1.000  O
  O11      1.0000 0.12911  0.91618  0.21948  Biso   1.000  O
  O12      1.0000 0.87089  0.58382  0.21948  Biso   1.000  O
  O13      1.0000 0.67392  0.25000  0.98949  Biso   1.000  O
  O14      1.0000 0.32608  0.25000  0.98949  Biso   1.000  O
  O15      1.0000 0.82608  0.25000  0.51051  Biso   1.000  O
  O16      1.0000 0.17392  0.25000  0.51051  Biso   1.000  O
  O17      1.0000 0.40065  0.12875  0.89563  Biso   1.000  O
  O18      1.0000 0.59934  0.37125  0.89563  Biso   1.000  O
  O19      1.0000 0.09934  0.12875  0.60437  Biso   1.000  O
  O20      1.0000 0.90065  0.37125  0.60437  Biso   1.000  O
  O21      1.0000 0.09934  0.37125  0.60437  Biso   1.000  O
  O22      1.0000 0.90065  0.12875  0.60437  Biso   1.000  O
  O23      1.0000 0.40065  0.37125  0.89563  Biso   1.000  O
  O24      1.0000 0.59934  0.12875  0.89563  Biso   1.000  O
  O25      1.0000 0.39427  0.11998  0.07831  Biso   1.000  O
  O26      1.0000 0.60573  0.38002  0.07831  Biso   1.000  O
  O27      1.0000 0.10573  0.11998  0.42169  Biso   1.000  O
  O28      1.0000 0.89427  0.38002  0.42169  Biso   1.000  O
  O29      1.0000 0.10573  0.38002  0.42169  Biso   1.000  O
  O30      1.0000 0.89427  0.11998  0.42169  Biso   1.000  O
  O31      1.0000 0.39427  0.38002  0.07831  Biso   1.000  O
  O32      1.0000 0.60573  0.11998  0.07831  Biso   1.000  O
  O33      1.0000 0.68128  0.47951  0.41062  Biso   1.000  O
  O34      1.0000 0.31872  0.02049  0.41062  Biso   1.000  O
  O35      1.0000 0.31872  0.97951  0.58938  Biso   1.000  O
  O36      1.0000 0.18128  0.02049  0.08938  Biso   1.000  O
  O37      1.0000 0.81872  0.02049  0.08938  Biso   1.000  O
  O38      1.0000 0.18128  0.47951  0.08938  Biso   1.000  O
  O39      1.0000 0.18128  0.52049  0.91062  Biso   1.000  O
  O40      1.0000 0.31872  0.47951  0.41062  Biso   1.000  O
  O41      1.0000 0.40674  0.25000  0.20291  Biso   1.000  O
  O42      1.0000 0.59326  0.25000  0.20291  Biso   1.000  O
  O43      1.0000 0.09326  0.25000  0.29709  Biso   1.000  O
  O44      1.0000 0.90674  0.25000  0.29709  Biso   1.000  O
  O45      1.0000 0.63060  0.09160  0.25830  Biso   1.000  O
  O46      1.0000 0.36940  0.40840  0.25830  Biso   1.000  O
  O47      1.0000 0.36940  0.59160  0.74170  Biso   1.000  O
  O48      1.0000 0.13060  0.40840  0.24170  Biso   1.000  O
  O49      1.0000 0.86940  0.40840  0.24170  Biso   1.000  O
  O50      1.0000 0.13060  0.09160  0.24170  Biso   1.000  O
  O51      1.0000 0.13060  0.90840  0.75829  Biso   1.000  O
  O52      1.0000 0.36940  0.09160  0.25830  Biso   1.000  O
  O53      1.0000 0.50000  0.38262  0.19892  Biso   1.000  O
  O54      1.0000 0.50000  0.11738  0.19892  Biso   1.000  O
  O55      1.0000 0.00000  0.38262  0.30108  Biso   1.000  O
  O56      1.0000 0.00000  0.11738  0.30108  Biso   1.000  O
  O57      1.0000 0.25000  0.50053  0.25000  Biso   1.000  O
  O58      1.0000 0.25000  0.49947  0.75000  Biso   1.000  O
  O59      1.0000 0.25000  0.99947  0.25000  Biso   1.000  O
  O60      1.0000 0.75000  0.50053  0.25000  Biso   1.000  O
  O61      1.0000 0.00000  0.13204  0.73352  Biso   1.000  O
  O62      1.0000 0.50000  0.86796  0.23352  Biso   1.000  O
  O63      1.0000 0.00000  0.63204  0.26648  Biso   1.000  O
  O64      1.0000 0.50000  0.36796  0.76648  Biso   1.000  O
  O65      1.0000 0.22040  0.41382  0.52293  Biso   1.000  O
  O66      1.0000 0.27960  0.58618  0.02293  Biso   1.000  O
  O67      1.0000 0.27960  0.41382  0.97707  Biso   1.000  O
  O68      1.0000 0.72040  0.08618  0.97707  Biso   1.000  O
  O69      1.0000 0.27960  0.08618  0.97707  Biso   1.000  O
  O70      1.0000 0.22040  0.91382  0.47707  Biso   1.000  O
  O71      1.0000 0.22040  0.08618  0.52293  Biso   1.000  O
  O72      1.0000 0.77960  0.41382  0.52293  Biso   1.000  O
  O73      1.0000 0.89489  0.75000  0.26054  Biso   1.000  O
  O74      1.0000 0.10511  0.75000  0.26054  Biso   1.000  O
  O75      1.0000 0.60511  0.75000  0.23946  Biso   1.000  O
  O76      1.0000 0.39489  0.75000  0.23946  Biso   1.000  O
  O77      1.0000 0.62911  0.08382  0.71948  Biso   1.000  O
  O78      1.0000 0.87089  0.91618  0.21948  Biso   1.000  O
  O79      1.0000 0.87089  0.08382  0.78052  Biso   1.000  O
  O80      1.0000 0.12911  0.41618  0.78052  Biso   1.000  O
  O81      1.0000 0.87089  0.41618  0.78052  Biso   1.000  O
  O82      1.0000 0.62911  0.58382  0.28052  Biso   1.000  O
  O83      1.0000 0.62911  0.41618  0.71948  Biso   1.000  O
  O84      1.0000 0.37089  0.08382  0.71948  Biso   1.000  O
  O85      1.0000 0.17392  0.75000  0.48949  Biso   1.000  O
  O86      1.0000 0.82608  0.75000  0.48949  Biso   1.000  O
  O87      1.0000 0.32608  0.75000  0.01051  Biso   1.000  O
  O88      1.0000 0.67392  0.75000  0.01051  Biso   1.000  O
  O89      1.0000 0.90065  0.62875  0.39563  Biso   1.000  O
  O90      1.0000 0.09934  0.87125  0.39563  Biso   1.000  O
  O91      1.0000 0.59934  0.62875  0.10437  Biso   1.000  O
  O92      1.0000 0.40065  0.87125  0.10437  Biso   1.000  O
  O93      1.0000 0.59934  0.87125  0.10437  Biso   1.000  O
  O94      1.0000 0.40065  0.62875  0.10437  Biso   1.000  O
  O95      1.0000 0.90065  0.87125  0.39563  Biso   1.000  O
  O96      1.0000 0.09934  0.62875  0.39563  Biso   1.000  O
  O97      1.0000 0.89427  0.61998  0.57831  Biso   1.000  O
  O98      1.0000 0.10573  0.88002  0.57831  Biso   1.000  O
  O99      1.0000 0.60573  0.61998  0.92169  Biso   1.000  O
  O100     1.0000 0.39427  0.88002  0.92169  Biso   1.000  O
  O101     1.0000 0.60573  0.88002  0.92169  Biso   1.000  O
  O102     1.0000 0.39427  0.61998  0.92169  Biso   1.000  O
  O103     1.0000 0.89427  0.88002  0.57831  Biso   1.000  O
  O104     1.0000 0.10573  0.61998  0.57831  Biso   1.000  O
  O105     1.0000 0.18128  0.97951  0.91062  Biso   1.000  O
  O106     1.0000 0.81872  0.52049  0.91062  Biso   1.000  O
  O107     1.0000 0.81872  0.47951  0.08938  Biso   1.000  O
  O108     1.0000 0.68128  0.52049  0.58938  Biso   1.000  O
  O109     1.0000 0.31872  0.52049  0.58938  Biso   1.000  O
  O110     1.0000 0.68128  0.97951  0.58938  Biso   1.000  O
  O111     1.0000 0.68128  0.02049  0.41062  Biso   1.000  O
  O112     1.0000 0.81872  0.97951  0.91062  Biso   1.000  O
  O113     1.0000 0.90674  0.75000  0.70291  Biso   1.000  O
  O114     1.0000 0.09326  0.75000  0.70291  Biso   1.000  O
  O115     1.0000 0.59326  0.75000  0.79709  Biso   1.000  O
  O116     1.0000 0.40674  0.75000  0.79709  Biso   1.000  O
  O117     1.0000 0.13060  0.59160  0.75829  Biso   1.000  O
  O118     1.0000 0.86940  0.90840  0.75829  Biso   1.000  O
  O119     1.0000 0.86940  0.09160  0.24170  Biso   1.000  O
  O120     1.0000 0.63060  0.90840  0.74170  Biso   1.000  O
  O121     1.0000 0.36940  0.90840  0.74170  Biso   1.000  O
  O122     1.0000 0.63060  0.59160  0.74170  Biso   1.000  O
  O123     1.0000 0.63060  0.40840  0.25830  Biso   1.000  O
  O124     1.0000 0.86940  0.59160  0.75829  Biso   1.000  O
  O125     1.0000 0.00000  0.88262  0.69892  Biso   1.000  O
  O126     1.0000 0.00000  0.61738  0.69892  Biso   1.000  O
  O127     1.0000 0.50000  0.88262  0.80108  Biso   1.000  O
  O128     1.0000 0.50000  0.61738  0.80108  Biso   1.000  O
  O129     1.0000 0.75000  0.00053  0.75000  Biso   1.000  O
  O130     1.0000 0.75000  0.99947  0.25000  Biso   1.000  O
  O131     1.0000 0.75000  0.49947  0.75000  Biso   1.000  O
  O132     1.0000 0.25000  0.00053  0.75000  Biso   1.000  O
  O133     1.0000 0.50000  0.63204  0.23352  Biso   1.000  O
  O134     1.0000 0.00000  0.36796  0.73352  Biso   1.000  O
  O135     1.0000 0.50000  0.13204  0.76648  Biso   1.000  O
  O136     1.0000 0.00000  0.86796  0.26648  Biso   1.000  O
  O137     1.0000 0.72040  0.91382  0.02293  Biso   1.000  O
  O138     1.0000 0.77960  0.08618  0.52293  Biso   1.000  O
  O139     1.0000 0.77960  0.91382  0.47707  Biso   1.000  O
  O140     1.0000 0.22040  0.58618  0.47707  Biso   1.000  O
  O141     1.0000 0.77960  0.58618  0.47707  Biso   1.000  O
  O142     1.0000 0.72040  0.41382  0.97707  Biso   1.000  O
  O143     1.0000 0.72040  0.58618  0.02293  Biso   1.000  O
  O144     1.0000 0.27960  0.91382  0.02293  Biso   1.000  O
  Ir1      1.0000 0.58344  0.35145  0.78590  Biso   1.000  Ir
  Ir2      1.0000 0.91656  0.64855  0.28591  Biso   1.000  Ir
  Ir3      1.0000 0.41656  0.85145  0.21410  Biso   1.000  Ir
  Ir4      1.0000 0.08345  0.14855  0.71409  Biso   1.000  Ir
  Ir5      1.0000 0.91656  0.14855  0.71409  Biso   1.000  Ir
  Ir6      1.0000 0.58344  0.85145  0.21410  Biso   1.000  Ir
  Ir7      1.0000 0.08345  0.64855  0.28591  Biso   1.000  Ir
  Ir8      1.0000 0.41656  0.35145  0.78590  Biso   1.000  Ir
  Ir9      1.0000 0.17293  0.00674  0.20096  Biso   1.000  Ir
  Ir10     1.0000 0.82707  0.49326  0.20096  Biso   1.000  Ir
  Ir11     1.0000 0.32707  0.00674  0.29904  Biso   1.000  Ir
  Ir12     1.0000 0.17293  0.99326  0.79904  Biso   1.000  Ir
  Ir13     1.0000 0.32707  0.49326  0.29904  Biso   1.000  Ir
  Ir14     1.0000 0.67293  0.00674  0.29904  Biso   1.000  Ir
  Ir15     1.0000 0.17293  0.49326  0.20096  Biso   1.000  Ir
  Ir16     1.0000 0.32707  0.50674  0.70096  Biso   1.000  Ir
  Ir17     1.0000 0.41765  0.35498  0.18434  Biso   1.000  Ir
  Ir18     1.0000 0.58235  0.14502  0.18434  Biso   1.000  Ir
  Ir19     1.0000 0.08235  0.35498  0.31566  Biso   1.000  Ir
  Ir20     1.0000 0.91765  0.14502  0.31566  Biso   1.000  Ir
  Ir21     1.0000 0.08235  0.14502  0.31566  Biso   1.000  Ir
  Ir22     1.0000 0.91765  0.35498  0.31566  Biso   1.000  Ir
  Ir23     1.0000 0.41765  0.14502  0.18434  Biso   1.000  Ir
  Ir24     1.0000 0.58235  0.35498  0.18434  Biso   1.000  Ir
  Ir25     1.0000 0.23113  0.00000  0.00000  Biso   1.000  Ir
  Ir26     1.0000 0.26887  0.00000  0.50000  Biso   1.000  Ir
  Ir27     1.0000 0.76887  0.00000  0.00000  Biso   1.000  Ir
  Ir28     1.0000 0.23113  0.50000  0.00000  Biso   1.000  Ir
  Ir29     1.0000 0.64996  0.14660  0.98527  Biso   1.000  Ir
  Ir30     1.0000 0.35004  0.35340  0.98527  Biso   1.000  Ir
  Ir31     1.0000 0.35004  0.64660  0.01472  Biso   1.000  Ir
  Ir32     1.0000 0.14996  0.35340  0.51472  Biso   1.000  Ir
  Ir33     1.0000 0.85004  0.35340  0.51472  Biso   1.000  Ir
  Ir34     1.0000 0.14996  0.14660  0.51472  Biso   1.000  Ir
  Ir35     1.0000 0.14996  0.85340  0.48528  Biso   1.000  Ir
  Ir36     1.0000 0.35004  0.14660  0.98527  Biso   1.000  Ir
  Ir37     1.0000 0.08345  0.85145  0.28591  Biso   1.000  Ir
  Ir38     1.0000 0.41656  0.14855  0.78590  Biso   1.000  Ir
  Ir39     1.0000 0.91656  0.35145  0.71409  Biso   1.000  Ir
  Ir40     1.0000 0.58344  0.64855  0.21410  Biso   1.000  Ir
  Ir41     1.0000 0.41656  0.64855  0.21410  Biso   1.000  Ir
  Ir42     1.0000 0.08345  0.35145  0.71409  Biso   1.000  Ir
  Ir43     1.0000 0.58344  0.14855  0.78590  Biso   1.000  Ir
  Ir44     1.0000 0.91656  0.85145  0.28591  Biso   1.000  Ir
  Ir45     1.0000 0.67293  0.50674  0.70096  Biso   1.000  Ir
  Ir46     1.0000 0.32707  0.99326  0.70096  Biso   1.000  Ir
  Ir47     1.0000 0.82707  0.50674  0.79904  Biso   1.000  Ir
  Ir48     1.0000 0.67293  0.49326  0.29904  Biso   1.000  Ir
  Ir49     1.0000 0.82707  0.99326  0.79904  Biso   1.000  Ir
  Ir50     1.0000 0.17293  0.50674  0.79904  Biso   1.000  Ir
  Ir51     1.0000 0.67293  0.99326  0.70096  Biso   1.000  Ir
  Ir52     1.0000 0.82707  0.00674  0.20096  Biso   1.000  Ir
  Ir53     1.0000 0.91765  0.85498  0.68434  Biso   1.000  Ir
  Ir54     1.0000 0.08235  0.64502  0.68434  Biso   1.000  Ir
  Ir55     1.0000 0.58235  0.85498  0.81566  Biso   1.000  Ir
  Ir56     1.0000 0.41765  0.64502  0.81566  Biso   1.000  Ir
  Ir57     1.0000 0.58235  0.64502  0.81566  Biso   1.000  Ir
  Ir58     1.0000 0.41765  0.85498  0.81566  Biso   1.000  Ir
  Ir59     1.0000 0.91765  0.64502  0.68434  Biso   1.000  Ir
  Ir60     1.0000 0.08235  0.85498  0.68434  Biso   1.000  Ir
  Ir61     1.0000 0.73113  0.50000  0.50000  Biso   1.000  Ir
  Ir62     1.0000 0.76887  0.50000  0.00000  Biso   1.000  Ir
  Ir63     1.0000 0.26887  0.50000  0.50000  Biso   1.000  Ir
  Ir64     1.0000 0.73113  0.00000  0.50000  Biso   1.000  Ir
  Ir65     1.0000 0.14996  0.64660  0.48528  Biso   1.000  Ir
  Ir66     1.0000 0.85004  0.85340  0.48528  Biso   1.000  Ir
  Ir67     1.0000 0.85004  0.14660  0.51472  Biso   1.000  Ir
  Ir68     1.0000 0.64996  0.85340  0.01472  Biso   1.000  Ir
  Ir69     1.0000 0.35004  0.85340  0.01472  Biso   1.000  Ir
  Ir70     1.0000 0.64996  0.64660  0.01472  Biso   1.000  Ir
  Ir71     1.0000 0.64996  0.35340  0.98527  Biso   1.000  Ir
  Ir72     1.0000 0.85004  0.64660  0.48528  Biso   1.000  Ir
