data_image0
_cell_length_a       20.4552
_cell_length_b       24.6692
_cell_length_c       6.29558
_cell_angle_alpha    90
_cell_angle_beta     90
_cell_angle_gamma    90

_symmetry_space_group_name_H-M    "P 1"
_symmetry_int_tables_number       1

loop_
  _symmetry_equiv_pos_as_xyz
  'x, y, z'

loop_
  _atom_site_label
  _atom_site_occupancy
  _atom_site_fract_x
  _atom_site_fract_y
  _atom_site_fract_z
  _atom_site_thermal_displace_type
  _atom_site_B_iso_or_equiv
  _atom_site_type_symbol
  O1       1.0000 0.79092  0.50000  0.00000  Biso   1.000  O
  O2       1.0000 0.20908  0.50000  0.00000  Biso   1.000  O
  O3       1.0000 0.85382  0.41463  0.31832  Biso   1.000  O
  O4       1.0000 0.14618  0.58537  0.31832  Biso   1.000  O
  O5       1.0000 0.14618  0.41463  0.68168  Biso   1.000  O
  O6       1.0000 0.85382  0.58537  0.68168  Biso   1.000  O
  O7       1.0000 0.00000  0.20093  0.50000  Biso   1.000  O
  O8       1.0000 0.00000  0.79907  0.50000  Biso   1.000  O
  O9       1.0000 0.14363  0.18580  0.69475  Biso   1.000  O
  O10      1.0000 0.85637  0.81420  0.69475  Biso   1.000  O
  O11      1.0000 0.85637  0.18580  0.30525  Biso   1.000  O
  O12      1.0000 0.14363  0.81420  0.30525  Biso   1.000  O
  O13      1.0000 0.11873  0.59765  0.81948  Biso   1.000  O
  O14      1.0000 0.88127  0.40235  0.81948  Biso   1.000  O
  O15      1.0000 0.88127  0.59765  0.18052  Biso   1.000  O
  O16      1.0000 0.11873  0.40235  0.18052  Biso   1.000  O
  O17      1.0000 0.26322  0.37991  0.00370  Biso   1.000  O
  O18      1.0000 0.73678  0.62009  0.00370  Biso   1.000  O
  O19      1.0000 0.73678  0.37991  0.99630  Biso   1.000  O
  O20      1.0000 0.26322  0.62009  0.99630  Biso   1.000  O
  O21      1.0000 0.00000  0.60051  0.50000  Biso   1.000  O
  O22      1.0000 0.00000  0.39949  0.50000  Biso   1.000  O
  O23      1.0000 0.89724  0.30015  0.50390  Biso   1.000  O
  O24      1.0000 0.10276  0.69985  0.50390  Biso   1.000  O
  O25      1.0000 0.10276  0.30015  0.49610  Biso   1.000  O
  O26      1.0000 0.89724  0.69985  0.49610  Biso   1.000  O
  O27      1.0000 0.12384  0.19592  0.19480  Biso   1.000  O
  O28      1.0000 0.87616  0.80408  0.19480  Biso   1.000  O
  O29      1.0000 0.87616  0.19592  0.80520  Biso   1.000  O
  O30      1.0000 0.12384  0.80408  0.80520  Biso   1.000  O
  O31      1.0000 0.25000  0.25000  0.97762  Biso   1.000  O
  O32      1.0000 0.75000  0.25000  0.02238  Biso   1.000  O
  O33      1.0000 0.29092  0.00000  0.00000  Biso   1.000  O
  O34      1.0000 0.70908  0.00000  0.00000  Biso   1.000  O
  O35      1.0000 0.35382  0.91463  0.31832  Biso   1.000  O
  O36      1.0000 0.64618  0.08537  0.31832  Biso   1.000  O
  O37      1.0000 0.64618  0.91463  0.68168  Biso   1.000  O
  O38      1.0000 0.35382  0.08537  0.68168  Biso   1.000  O
  O39      1.0000 0.50000  0.70093  0.50000  Biso   1.000  O
  O40      1.0000 0.50000  0.29907  0.50000  Biso   1.000  O
  O41      1.0000 0.64363  0.68580  0.69475  Biso   1.000  O
  O42      1.0000 0.35637  0.31420  0.69475  Biso   1.000  O
  O43      1.0000 0.35637  0.68580  0.30525  Biso   1.000  O
  O44      1.0000 0.64363  0.31420  0.30525  Biso   1.000  O
  O45      1.0000 0.61873  0.09765  0.81948  Biso   1.000  O
  O46      1.0000 0.38127  0.90235  0.81948  Biso   1.000  O
  O47      1.0000 0.38127  0.09765  0.18052  Biso   1.000  O
  O48      1.0000 0.61873  0.90235  0.18052  Biso   1.000  O
  O49      1.0000 0.76322  0.87991  0.00370  Biso   1.000  O
  O50      1.0000 0.23678  0.12009  0.00370  Biso   1.000  O
  O51      1.0000 0.23678  0.87991  0.99630  Biso   1.000  O
  O52      1.0000 0.76322  0.12009  0.99630  Biso   1.000  O
  O53      1.0000 0.50000  0.10051  0.50000  Biso   1.000  O
  O54      1.0000 0.50000  0.89949  0.50000  Biso   1.000  O
  O55      1.0000 0.39724  0.80015  0.50390  Biso   1.000  O
  O56      1.0000 0.60276  0.19985  0.50390  Biso   1.000  O
  O57      1.0000 0.60276  0.80015  0.49610  Biso   1.000  O
  O58      1.0000 0.39724  0.19985  0.49610  Biso   1.000  O
  O59      1.0000 0.62384  0.69592  0.19480  Biso   1.000  O
  O60      1.0000 0.37616  0.30408  0.19480  Biso   1.000  O
  O61      1.0000 0.37616  0.69592  0.80520  Biso   1.000  O
  O62      1.0000 0.62384  0.30408  0.80520  Biso   1.000  O
  O63      1.0000 0.75000  0.75000  0.97762  Biso   1.000  O
  O64      1.0000 0.25000  0.75000  0.02238  Biso   1.000  O
  Ir1      1.0000 0.18398  0.42384  0.96678  Biso   1.000  Ir
  Ir2      1.0000 0.81602  0.57616  0.96678  Biso   1.000  Ir
  Ir3      1.0000 0.81602  0.42384  0.03322  Biso   1.000  Ir
  Ir4      1.0000 0.18398  0.57616  0.03322  Biso   1.000  Ir
  Ir5      1.0000 0.68912  0.68845  0.96866  Biso   1.000  Ir
  Ir6      1.0000 0.31088  0.31155  0.96866  Biso   1.000  Ir
  Ir7      1.0000 0.31088  0.68845  0.03134  Biso   1.000  Ir
  Ir8      1.0000 0.68912  0.31155  0.03134  Biso   1.000  Ir
  Ir9      1.0000 0.90766  0.77884  0.47151  Biso   1.000  Ir
  Ir10     1.0000 0.09234  0.22116  0.47151  Biso   1.000  Ir
  Ir11     1.0000 0.09234  0.77884  0.52849  Biso   1.000  Ir
  Ir12     1.0000 0.90766  0.22116  0.52849  Biso   1.000  Ir
  Ir13     1.0000 0.09209  0.37895  0.46558  Biso   1.000  Ir
  Ir14     1.0000 0.90791  0.62105  0.46558  Biso   1.000  Ir
  Ir15     1.0000 0.90791  0.37895  0.53442  Biso   1.000  Ir
  Ir16     1.0000 0.09209  0.62105  0.53442  Biso   1.000  Ir
  Ir17     1.0000 0.68398  0.92384  0.96678  Biso   1.000  Ir
  Ir18     1.0000 0.31602  0.07616  0.96678  Biso   1.000  Ir
  Ir19     1.0000 0.31602  0.92384  0.03322  Biso   1.000  Ir
  Ir20     1.0000 0.68398  0.07616  0.03322  Biso   1.000  Ir
  Ir21     1.0000 0.18912  0.18845  0.96866  Biso   1.000  Ir
  Ir22     1.0000 0.81088  0.81155  0.96866  Biso   1.000  Ir
  Ir23     1.0000 0.81088  0.18845  0.03134  Biso   1.000  Ir
  Ir24     1.0000 0.18912  0.81155  0.03134  Biso   1.000  Ir
  Ir25     1.0000 0.40766  0.27884  0.47151  Biso   1.000  Ir
  Ir26     1.0000 0.59234  0.72116  0.47151  Biso   1.000  Ir
  Ir27     1.0000 0.59234  0.27884  0.52849  Biso   1.000  Ir
  Ir28     1.0000 0.40766  0.72116  0.52849  Biso   1.000  Ir
  Ir29     1.0000 0.59209  0.87895  0.46558  Biso   1.000  Ir
  Ir30     1.0000 0.40791  0.12105  0.46558  Biso   1.000  Ir
  Ir31     1.0000 0.40791  0.87895  0.53442  Biso   1.000  Ir
  Ir32     1.0000 0.59209  0.12105  0.53442  Biso   1.000  Ir
