data_image0
_cell_length_a       5.42069
_cell_length_b       5.4207
_cell_length_c       184.034
_cell_angle_alpha    90
_cell_angle_beta     90
_cell_angle_gamma    120

_symmetry_space_group_name_H-M    "P 1"
_symmetry_int_tables_number       1

loop_
  _symmetry_equiv_pos_as_xyz
  'x, y, z'

loop_
  _atom_site_label
  _atom_site_occupancy
  _atom_site_fract_x
  _atom_site_fract_y
  _atom_site_fract_z
  _atom_site_thermal_displace_type
  _atom_site_B_iso_or_equiv
  _atom_site_type_symbol
  Ir1      1.0000 0.33333  0.66667  0.97000  Biso   1.000  Ir
  Ir2      1.0000 0.00000  0.00000  0.64999  Biso   1.000  Ir
  Ir3      1.0000 0.00000  0.00000  0.57000  Biso   1.000  Ir
  Ir4      1.0000 0.33333  0.66667  0.77000  Biso   1.000  Ir
  Ir5      1.0000 0.33333  0.66667  0.37000  Biso   1.000  Ir
  Ir6      1.0000 0.00000  0.00000  0.41000  Biso   1.000  Ir
  Ir7      1.0000 0.00000  0.00000  0.33001  Biso   1.000  Ir
  Ir8      1.0000 0.00000  0.00000  0.01000  Biso   1.000  Ir
  Ir9      1.0000 0.33333  0.66667  0.53001  Biso   1.000  Ir
  Ir10     1.0000 0.33333  0.66667  0.29000  Biso   1.000  Ir
  Ir11     1.0000 0.00000  0.00000  0.17000  Biso   1.000  Ir
  Ir12     1.0000 0.00000  0.00000  0.73001  Biso   1.000  Ir
  Ir13     1.0000 0.00000  0.00000  0.81000  Biso   1.000  Ir
  Ir14     1.0000 0.00000  0.00000  0.09000  Biso   1.000  Ir
  Ir15     1.0000 0.33333  0.66667  0.93001  Biso   1.000  Ir
  Ir16     1.0000 0.33333  0.66667  0.61000  Biso   1.000  Ir
  Ir17     1.0000 0.33333  0.66667  0.69000  Biso   1.000  Ir
  Ir18     1.0000 0.33333  0.66667  0.04999  Biso   1.000  Ir
  Ir19     1.0000 0.33333  0.66667  0.13001  Biso   1.000  Ir
  Ir20     1.0000 0.00000  0.00000  0.89000  Biso   1.000  Ir
  Ir21     1.0000 0.00000  0.00000  0.49000  Biso   1.000  Ir
  Ir22     1.0000 0.00000  0.00000  0.24999  Biso   1.000  Ir
  Ir23     1.0000 0.33333  0.66667  0.44999  Biso   1.000  Ir
  Ir24     1.0000 0.33333  0.66667  0.84999  Biso   1.000  Ir
  Ir25     1.0000 0.33333  0.66667  0.21000  Biso   1.000  Ir
  O1       1.0000 0.66667  0.33333  0.12063  Biso   1.000  O
  O2       1.0000 0.66667  0.33333  0.52063  Biso   1.000  O
  O3       1.0000 0.66667  0.33333  0.36062  Biso   1.000  O
  O4       1.0000 0.66667  0.33333  0.24061  Biso   1.000  O
  O5       1.0000 0.66667  0.33333  0.20061  Biso   1.000  O
  O6       1.0000 0.66667  0.33333  0.56062  Biso   1.000  O
  O7       1.0000 0.66667  0.33333  0.48061  Biso   1.000  O
  O8       1.0000 0.66667  0.33333  0.88061  Biso   1.000  O
  O9       1.0000 0.33333  0.66667  0.89938  Biso   1.000  O
  O10      1.0000 0.66667  0.33333  0.84061  Biso   1.000  O
  O11      1.0000 0.66667  0.33333  0.64061  Biso   1.000  O
  O12      1.0000 0.66667  0.33333  0.72063  Biso   1.000  O
  O13      1.0000 0.00000  0.00000  0.97937  Biso   1.000  O
  O14      1.0000 0.66667  0.33333  0.68063  Biso   1.000  O
  O15      1.0000 0.33333  0.66667  0.57938  Biso   1.000  O
  O16      1.0000 0.33333  0.66667  0.01938  Biso   1.000  O
  O17      1.0000 0.33333  0.66667  0.65937  Biso   1.000  O
  O18      1.0000 0.00000  0.00000  0.13939  Biso   1.000  O
  O19      1.0000 0.33333  0.66667  0.73939  Biso   1.000  O
  O20      1.0000 0.66667  0.33333  0.60063  Biso   1.000  O
  O21      1.0000 0.33333  0.66667  0.81939  Biso   1.000  O
  O22      1.0000 0.66667  0.33333  0.92063  Biso   1.000  O
  O23      1.0000 0.00000  0.00000  0.69938  Biso   1.000  O
  O24      1.0000 0.66667  0.33333  0.40063  Biso   1.000  O
  O25      1.0000 0.00000  0.00000  0.29937  Biso   1.000  O
  O26      1.0000 0.00000  0.00000  0.21938  Biso   1.000  O
  O27      1.0000 0.66667  0.33333  0.80062  Biso   1.000  O
  O28      1.0000 0.66667  0.33333  0.32063  Biso   1.000  O
  O29      1.0000 0.00000  0.00000  0.05937  Biso   1.000  O
  O30      1.0000 0.00000  0.00000  0.61938  Biso   1.000  O
  O31      1.0000 0.33333  0.66667  0.17939  Biso   1.000  O
  O32      1.0000 0.66667  0.33333  0.28062  Biso   1.000  O
  O33      1.0000 0.00000  0.00000  0.85938  Biso   1.000  O
  O34      1.0000 0.33333  0.66667  0.09938  Biso   1.000  O
  O35      1.0000 0.66667  0.33333  0.08062  Biso   1.000  O
  O36      1.0000 0.00000  0.00000  0.93938  Biso   1.000  O
  O37      1.0000 0.66667  0.33333  0.00063  Biso   1.000  O
  O38      1.0000 0.33333  0.66667  0.41938  Biso   1.000  O
  O39      1.0000 0.66667  0.33333  0.96062  Biso   1.000  O
  O40      1.0000 0.66667  0.33333  0.16062  Biso   1.000  O
  O41      1.0000 0.00000  0.00000  0.77938  Biso   1.000  O
  O42      1.0000 0.00000  0.00000  0.45937  Biso   1.000  O
  O43      1.0000 0.33333  0.66667  0.25936  Biso   1.000  O
  O44      1.0000 0.66667  0.33333  0.04061  Biso   1.000  O
  O45      1.0000 0.00000  0.00000  0.37938  Biso   1.000  O
  O46      1.0000 0.66667  0.33333  0.76062  Biso   1.000  O
  O47      1.0000 0.33333  0.66667  0.49938  Biso   1.000  O
  O48      1.0000 0.00000  0.00000  0.53939  Biso   1.000  O
  O49      1.0000 0.33333  0.66667  0.33939  Biso   1.000  O
  O50      1.0000 0.66667  0.33333  0.44061  Biso   1.000  O
