data_image0
_cell_length_a       10.1413
_cell_length_b       22.8335
_cell_length_c       16.3406
_cell_angle_alpha    90
_cell_angle_beta     90
_cell_angle_gamma    90

_symmetry_space_group_name_H-M    "P 1"
_symmetry_int_tables_number       1

loop_
  _symmetry_equiv_pos_as_xyz
  'x, y, z'

loop_
  _atom_site_label
  _atom_site_occupancy
  _atom_site_fract_x
  _atom_site_fract_y
  _atom_site_fract_z
  _atom_site_thermal_displace_type
  _atom_site_B_iso_or_equiv
  _atom_site_type_symbol
  O1       1.0000 0.29626  0.95423  0.62509  Biso   1.000  O
  O2       1.0000 0.20374  0.04577  0.12509  Biso   1.000  O
  O3       1.0000 0.20374  0.95423  0.87491  Biso   1.000  O
  O4       1.0000 0.29626  0.04577  0.37491  Biso   1.000  O
  O5       1.0000 0.70374  0.04577  0.37491  Biso   1.000  O
  O6       1.0000 0.79626  0.95423  0.87491  Biso   1.000  O
  O7       1.0000 0.79626  0.04577  0.12509  Biso   1.000  O
  O8       1.0000 0.70374  0.95423  0.62509  Biso   1.000  O
  O9       1.0000 0.25000  0.93847  0.25000  Biso   1.000  O
  O10      1.0000 0.25000  0.06153  0.75000  Biso   1.000  O
  O11      1.0000 0.75000  0.06153  0.75000  Biso   1.000  O
  O12      1.0000 0.75000  0.93847  0.25000  Biso   1.000  O
  O13      1.0000 0.20834  0.08137  0.55825  Biso   1.000  O
  O14      1.0000 0.79166  0.41863  0.55825  Biso   1.000  O
  O15      1.0000 0.79166  0.58137  0.44175  Biso   1.000  O
  O16      1.0000 0.20834  0.91863  0.44175  Biso   1.000  O
  O17      1.0000 0.79166  0.91863  0.44175  Biso   1.000  O
  O18      1.0000 0.20834  0.58137  0.44175  Biso   1.000  O
  O19      1.0000 0.20834  0.41863  0.55825  Biso   1.000  O
  O20      1.0000 0.79166  0.08137  0.55825  Biso   1.000  O
  O21      1.0000 0.50000  0.06220  0.62957  Biso   1.000  O
  O22      1.0000 0.00000  0.93780  0.12957  Biso   1.000  O
  O23      1.0000 0.00000  0.06220  0.87044  Biso   1.000  O
  O24      1.0000 0.50000  0.93780  0.37044  Biso   1.000  O
  O25      1.0000 0.76148  0.18021  0.42016  Biso   1.000  O
  O26      1.0000 0.23852  0.31979  0.42016  Biso   1.000  O
  O27      1.0000 0.23852  0.68021  0.57984  Biso   1.000  O
  O28      1.0000 0.76148  0.81979  0.57984  Biso   1.000  O
  O29      1.0000 0.23852  0.81979  0.57984  Biso   1.000  O
  O30      1.0000 0.76148  0.68021  0.57984  Biso   1.000  O
  O31      1.0000 0.76148  0.31979  0.42016  Biso   1.000  O
  O32      1.0000 0.23852  0.18021  0.42016  Biso   1.000  O
  O33      1.0000 0.00000  0.08786  0.41030  Biso   1.000  O
  O34      1.0000 0.50000  0.91214  0.91030  Biso   1.000  O
  O35      1.0000 0.50000  0.08786  0.08970  Biso   1.000  O
  O36      1.0000 0.00000  0.91214  0.58970  Biso   1.000  O
  O37      1.0000 0.75000  0.25000  0.25000  Biso   1.000  O
  O38      1.0000 0.25000  0.25000  0.25000  Biso   1.000  O
  O39      1.0000 0.50000  0.75000  0.62965  Biso   1.000  O
  O40      1.0000 0.50000  0.25000  0.37035  Biso   1.000  O
  O41      1.0000 0.79626  0.45423  0.12509  Biso   1.000  O
  O42      1.0000 0.70374  0.54577  0.62509  Biso   1.000  O
  O43      1.0000 0.70374  0.45423  0.37491  Biso   1.000  O
  O44      1.0000 0.79626  0.54577  0.87491  Biso   1.000  O
  O45      1.0000 0.20374  0.54577  0.87491  Biso   1.000  O
  O46      1.0000 0.29626  0.45423  0.37491  Biso   1.000  O
  O47      1.0000 0.29626  0.54577  0.62509  Biso   1.000  O
  O48      1.0000 0.20374  0.45423  0.12509  Biso   1.000  O
  O49      1.0000 0.75000  0.43847  0.75000  Biso   1.000  O
  O50      1.0000 0.75000  0.56153  0.25000  Biso   1.000  O
  O51      1.0000 0.25000  0.56153  0.25000  Biso   1.000  O
  O52      1.0000 0.25000  0.43847  0.75000  Biso   1.000  O
  O53      1.0000 0.70834  0.58137  0.05825  Biso   1.000  O
  O54      1.0000 0.29166  0.91863  0.05825  Biso   1.000  O
  O55      1.0000 0.29166  0.08137  0.94175  Biso   1.000  O
  O56      1.0000 0.70834  0.41863  0.94175  Biso   1.000  O
  O57      1.0000 0.29166  0.41863  0.94175  Biso   1.000  O
  O58      1.0000 0.70834  0.08137  0.94175  Biso   1.000  O
  O59      1.0000 0.70834  0.91863  0.05825  Biso   1.000  O
  O60      1.0000 0.29166  0.58137  0.05825  Biso   1.000  O
  O61      1.0000 0.00000  0.56220  0.12957  Biso   1.000  O
  O62      1.0000 0.50000  0.43780  0.62957  Biso   1.000  O
  O63      1.0000 0.50000  0.56220  0.37044  Biso   1.000  O
  O64      1.0000 0.00000  0.43780  0.87044  Biso   1.000  O
  O65      1.0000 0.26148  0.68021  0.92016  Biso   1.000  O
  O66      1.0000 0.73852  0.81979  0.92016  Biso   1.000  O
  O67      1.0000 0.73852  0.18021  0.07984  Biso   1.000  O
  O68      1.0000 0.26148  0.31979  0.07984  Biso   1.000  O
  O69      1.0000 0.73852  0.31979  0.07984  Biso   1.000  O
  O70      1.0000 0.26148  0.18021  0.07984  Biso   1.000  O
  O71      1.0000 0.26148  0.81979  0.92016  Biso   1.000  O
  O72      1.0000 0.73852  0.68021  0.92016  Biso   1.000  O
  O73      1.0000 0.50000  0.58786  0.91030  Biso   1.000  O
  O74      1.0000 0.00000  0.41214  0.41030  Biso   1.000  O
  O75      1.0000 0.00000  0.58786  0.58970  Biso   1.000  O
  O76      1.0000 0.50000  0.41214  0.08970  Biso   1.000  O
  O77      1.0000 0.25000  0.75000  0.75000  Biso   1.000  O
  O78      1.0000 0.75000  0.75000  0.75000  Biso   1.000  O
  O79      1.0000 0.00000  0.25000  0.12965  Biso   1.000  O
  O80      1.0000 0.00000  0.75000  0.87035  Biso   1.000  O
  Ir1      1.0000 0.31375  0.03974  0.64096  Biso   1.000  Ir
  Ir2      1.0000 0.18625  0.96026  0.14096  Biso   1.000  Ir
  Ir3      1.0000 0.18625  0.03974  0.85904  Biso   1.000  Ir
  Ir4      1.0000 0.31375  0.96026  0.35904  Biso   1.000  Ir
  Ir5      1.0000 0.68625  0.96026  0.35904  Biso   1.000  Ir
  Ir6      1.0000 0.81375  0.03974  0.85904  Biso   1.000  Ir
  Ir7      1.0000 0.81375  0.96026  0.14096  Biso   1.000  Ir
  Ir8      1.0000 0.68625  0.03974  0.64096  Biso   1.000  Ir
  Ir9      1.0000 0.81374  0.09933  0.44090  Biso   1.000  Ir
  Ir10     1.0000 0.18626  0.40067  0.44090  Biso   1.000  Ir
  Ir11     1.0000 0.18626  0.59933  0.55911  Biso   1.000  Ir
  Ir12     1.0000 0.81374  0.90067  0.55911  Biso   1.000  Ir
  Ir13     1.0000 0.18626  0.90067  0.55911  Biso   1.000  Ir
  Ir14     1.0000 0.81374  0.59933  0.55911  Biso   1.000  Ir
  Ir15     1.0000 0.81374  0.40067  0.44090  Biso   1.000  Ir
  Ir16     1.0000 0.18626  0.09933  0.44090  Biso   1.000  Ir
  Ir17     1.0000 0.30743  0.25000  0.36438  Biso   1.000  Ir
  Ir18     1.0000 0.69257  0.25000  0.36438  Biso   1.000  Ir
  Ir19     1.0000 0.69257  0.75000  0.63563  Biso   1.000  Ir
  Ir20     1.0000 0.30743  0.75000  0.63563  Biso   1.000  Ir
  Ir21     1.0000 0.81375  0.53974  0.14096  Biso   1.000  Ir
  Ir22     1.0000 0.68625  0.46026  0.64096  Biso   1.000  Ir
  Ir23     1.0000 0.68625  0.53974  0.35904  Biso   1.000  Ir
  Ir24     1.0000 0.81375  0.46026  0.85904  Biso   1.000  Ir
  Ir25     1.0000 0.18625  0.46026  0.85904  Biso   1.000  Ir
  Ir26     1.0000 0.31375  0.53974  0.35904  Biso   1.000  Ir
  Ir27     1.0000 0.31375  0.46026  0.64096  Biso   1.000  Ir
  Ir28     1.0000 0.18625  0.53974  0.14096  Biso   1.000  Ir
  Ir29     1.0000 0.31374  0.59933  0.94090  Biso   1.000  Ir
  Ir30     1.0000 0.68626  0.90067  0.94090  Biso   1.000  Ir
  Ir31     1.0000 0.68626  0.09933  0.05911  Biso   1.000  Ir
  Ir32     1.0000 0.31374  0.40067  0.05911  Biso   1.000  Ir
  Ir33     1.0000 0.68626  0.40067  0.05911  Biso   1.000  Ir
  Ir34     1.0000 0.31374  0.09933  0.05911  Biso   1.000  Ir
  Ir35     1.0000 0.31374  0.90067  0.94090  Biso   1.000  Ir
  Ir36     1.0000 0.68626  0.59933  0.94090  Biso   1.000  Ir
  Ir37     1.0000 0.80743  0.75000  0.86438  Biso   1.000  Ir
  Ir38     1.0000 0.19257  0.75000  0.86438  Biso   1.000  Ir
  Ir39     1.0000 0.19257  0.25000  0.13563  Biso   1.000  Ir
  Ir40     1.0000 0.80743  0.25000  0.13563  Biso   1.000  Ir
