data_image0
_cell_length_a       27.9759
_cell_length_b       27.976
_cell_length_c       9.65407
_cell_angle_alpha    90
_cell_angle_beta     90
_cell_angle_gamma    120

_symmetry_space_group_name_H-M    "P 1"
_symmetry_int_tables_number       1

loop_
  _symmetry_equiv_pos_as_xyz
  'x, y, z'

loop_
  _atom_site_label
  _atom_site_occupancy
  _atom_site_fract_x
  _atom_site_fract_y
  _atom_site_fract_z
  _atom_site_thermal_displace_type
  _atom_site_B_iso_or_equiv
  _atom_site_type_symbol
  O1       1.0000 0.83333  0.16667  0.66667  Biso   1.000  O
  O2       1.0000 0.83333  0.66667  0.66667  Biso   1.000  O
  O3       1.0000 0.00000  0.50000  0.00000  Biso   1.000  O
  O4       1.0000 0.83333  0.66667  0.16667  Biso   1.000  O
  O5       1.0000 0.83333  0.16667  0.16667  Biso   1.000  O
  O6       1.0000 0.00000  0.50000  0.50000  Biso   1.000  O
  O7       1.0000 0.09654  0.76321  0.58333  Biso   1.000  O
  O8       1.0000 0.90346  0.66667  0.91667  Biso   1.000  O
  O9       1.0000 0.00000  0.57012  0.25000  Biso   1.000  O
  O10      1.0000 0.90346  0.23679  0.41667  Biso   1.000  O
  O11      1.0000 0.09654  0.33333  0.08333  Biso   1.000  O
  O12      1.0000 0.00000  0.42988  0.75000  Biso   1.000  O
  O13      1.0000 0.10402  0.43736  0.91667  Biso   1.000  O
  O14      1.0000 0.89598  0.33333  0.58333  Biso   1.000  O
  O15      1.0000 0.00000  0.22931  0.25000  Biso   1.000  O
  O16      1.0000 0.89598  0.56264  0.08333  Biso   1.000  O
  O17      1.0000 0.10402  0.66667  0.41667  Biso   1.000  O
  O18      1.0000 0.00000  0.77069  0.75000  Biso   1.000  O
  O19      1.0000 0.94988  0.61655  0.58333  Biso   1.000  O
  O20      1.0000 0.05012  0.66667  0.91667  Biso   1.000  O
  O21      1.0000 1.00000  0.71679  0.25000  Biso   1.000  O
  O22      1.0000 0.05012  0.38345  0.41667  Biso   1.000  O
  O23      1.0000 0.94988  0.33333  0.08333  Biso   1.000  O
  O24      1.0000 1.00000  0.28321  0.75000  Biso   1.000  O
  O25      1.0000 0.50000  0.50000  0.00000  Biso   1.000  O
  O26      1.0000 0.50000  0.00000  0.00000  Biso   1.000  O
  O27      1.0000 0.66667  0.83333  0.33333  Biso   1.000  O
  O28      1.0000 0.50000  0.00000  0.50000  Biso   1.000  O
  O29      1.0000 0.50000  0.50000  0.50000  Biso   1.000  O
  O30      1.0000 0.66667  0.83333  0.83333  Biso   1.000  O
  O31      1.0000 0.76321  0.09654  0.91667  Biso   1.000  O
  O32      1.0000 0.57012  0.00000  0.25000  Biso   1.000  O
  O33      1.0000 0.66667  0.90346  0.58333  Biso   1.000  O
  O34      1.0000 0.57012  0.57012  0.75000  Biso   1.000  O
  O35      1.0000 0.76321  0.66667  0.41667  Biso   1.000  O
  O36      1.0000 0.66667  0.76321  0.08333  Biso   1.000  O
  O37      1.0000 0.77069  0.77069  0.25000  Biso   1.000  O
  O38      1.0000 0.56264  0.66667  0.91667  Biso   1.000  O
  O39      1.0000 0.66667  0.56264  0.58333  Biso   1.000  O
  O40      1.0000 0.56264  0.89598  0.41667  Biso   1.000  O
  O41      1.0000 0.77069  0.00000  0.75000  Biso   1.000  O
  O42      1.0000 0.66667  0.10402  0.08333  Biso   1.000  O
  O43      1.0000 0.61655  0.94988  0.91667  Biso   1.000  O
  O44      1.0000 0.71679  0.00000  0.25000  Biso   1.000  O
  O45      1.0000 0.66667  0.05012  0.58333  Biso   1.000  O
  O46      1.0000 0.71679  0.71679  0.75000  Biso   1.000  O
  O47      1.0000 0.61655  0.66667  0.41667  Biso   1.000  O
  O48      1.0000 0.66667  0.61655  0.08333  Biso   1.000  O
  O49      1.0000 0.16667  0.83333  0.33333  Biso   1.000  O
  O50      1.0000 0.16667  0.33333  0.33333  Biso   1.000  O
  O51      1.0000 0.33333  0.16667  0.66667  Biso   1.000  O
  O52      1.0000 0.16667  0.33333  0.83333  Biso   1.000  O
  O53      1.0000 0.16667  0.83333  0.83333  Biso   1.000  O
  O54      1.0000 0.33333  0.16667  0.16667  Biso   1.000  O
  O55      1.0000 0.42988  0.42988  0.25000  Biso   1.000  O
  O56      1.0000 0.23679  0.33333  0.58333  Biso   1.000  O
  O57      1.0000 0.33333  0.23679  0.91667  Biso   1.000  O
  O58      1.0000 0.23679  0.90346  0.08333  Biso   1.000  O
  O59      1.0000 0.42988  0.00000  0.75000  Biso   1.000  O
  O60      1.0000 0.33333  0.09654  0.41667  Biso   1.000  O
  O61      1.0000 0.43736  0.10402  0.58333  Biso   1.000  O
  O62      1.0000 0.22931  0.00000  0.25000  Biso   1.000  O
  O63      1.0000 0.33333  0.89598  0.91667  Biso   1.000  O
  O64      1.0000 0.22931  0.22931  0.75000  Biso   1.000  O
  O65      1.0000 0.43736  0.33333  0.08333  Biso   1.000  O
  O66      1.0000 0.33333  0.43736  0.41667  Biso   1.000  O
  O67      1.0000 0.28321  0.28321  0.25000  Biso   1.000  O
  O68      1.0000 0.38345  0.33333  0.58333  Biso   1.000  O
  O69      1.0000 0.33333  0.38345  0.91667  Biso   1.000  O
  O70      1.0000 0.38345  0.05012  0.08333  Biso   1.000  O
  O71      1.0000 0.28321  0.00000  0.75000  Biso   1.000  O
  O72      1.0000 0.33333  0.94988  0.41667  Biso   1.000  O
  Ir1      1.0000 0.92097  0.24607  0.21777  Biso   1.000  Ir
  Ir2      1.0000 0.08727  0.34157  0.88443  Biso   1.000  Ir
  Ir3      1.0000 0.99176  0.41236  0.55110  Biso   1.000  Ir
  Ir4      1.0000 0.07903  0.32509  0.28223  Biso   1.000  Ir
  Ir5      1.0000 0.91273  0.25431  0.61557  Biso   1.000  Ir
  Ir6      1.0000 0.00824  0.42060  0.94890  Biso   1.000  Ir
  Ir7      1.0000 0.07903  0.75393  0.78223  Biso   1.000  Ir
  Ir8      1.0000 0.91273  0.65843  0.11557  Biso   1.000  Ir
  Ir9      1.0000 0.00824  0.58764  0.44890  Biso   1.000  Ir
  Ir10     1.0000 0.92097  0.67491  0.71777  Biso   1.000  Ir
  Ir11     1.0000 0.08727  0.74569  0.38443  Biso   1.000  Ir
  Ir12     1.0000 0.99176  0.57940  0.05110  Biso   1.000  Ir
  Ir13     1.0000 0.58764  0.57940  0.55110  Biso   1.000  Ir
  Ir14     1.0000 0.75393  0.67491  0.21777  Biso   1.000  Ir
  Ir15     1.0000 0.65843  0.74569  0.88443  Biso   1.000  Ir
  Ir16     1.0000 0.74569  0.65843  0.61557  Biso   1.000  Ir
  Ir17     1.0000 0.57940  0.58764  0.94890  Biso   1.000  Ir
  Ir18     1.0000 0.67491  0.75393  0.28223  Biso   1.000  Ir
  Ir19     1.0000 0.74569  0.08727  0.11557  Biso   1.000  Ir
  Ir20     1.0000 0.57940  0.99176  0.44890  Biso   1.000  Ir
  Ir21     1.0000 0.67491  0.92097  0.78223  Biso   1.000  Ir
  Ir22     1.0000 0.58764  0.00824  0.05110  Biso   1.000  Ir
  Ir23     1.0000 0.75393  0.07903  0.71777  Biso   1.000  Ir
  Ir24     1.0000 0.65843  0.91273  0.38443  Biso   1.000  Ir
  Ir25     1.0000 0.25431  0.91273  0.88443  Biso   1.000  Ir
  Ir26     1.0000 0.42060  0.00824  0.55110  Biso   1.000  Ir
  Ir27     1.0000 0.32509  0.07903  0.21777  Biso   1.000  Ir
  Ir28     1.0000 0.41236  0.99176  0.94890  Biso   1.000  Ir
  Ir29     1.0000 0.24607  0.92097  0.28223  Biso   1.000  Ir
  Ir30     1.0000 0.34157  0.08727  0.61557  Biso   1.000  Ir
  Ir31     1.0000 0.41236  0.42060  0.44890  Biso   1.000  Ir
  Ir32     1.0000 0.24607  0.32509  0.78223  Biso   1.000  Ir
  Ir33     1.0000 0.34157  0.25431  0.11557  Biso   1.000  Ir
  Ir34     1.0000 0.25431  0.34157  0.38443  Biso   1.000  Ir
  Ir35     1.0000 0.42060  0.41236  0.05110  Biso   1.000  Ir
  Ir36     1.0000 0.32509  0.24607  0.71777  Biso   1.000  Ir
