data_image0
_cell_length_a       10.3457
_cell_length_b       15.2068
_cell_length_c       35.4762
_cell_angle_alpha    90
_cell_angle_beta     90
_cell_angle_gamma    90

_symmetry_space_group_name_H-M    "P 1"
_symmetry_int_tables_number       1

loop_
  _symmetry_equiv_pos_as_xyz
  'x, y, z'

loop_
  _atom_site_label
  _atom_site_occupancy
  _atom_site_fract_x
  _atom_site_fract_y
  _atom_site_fract_z
  _atom_site_thermal_displace_type
  _atom_site_B_iso_or_equiv
  _atom_site_type_symbol
  O1       1.0000 0.00000  0.52655  0.80159  Biso   1.000  O
  O2       1.0000 0.50000  0.47345  0.30159  Biso   1.000  O
  O3       1.0000 0.50000  0.52655  0.69841  Biso   1.000  O
  O4       1.0000 0.00000  0.47345  0.19841  Biso   1.000  O
  O5       1.0000 0.00000  0.23002  0.29845  Biso   1.000  O
  O6       1.0000 0.50000  0.76998  0.79845  Biso   1.000  O
  O7       1.0000 0.50000  0.23002  0.20155  Biso   1.000  O
  O8       1.0000 0.00000  0.76998  0.70155  Biso   1.000  O
  O9       1.0000 0.28180  0.82946  0.44833  Biso   1.000  O
  O10      1.0000 0.21820  0.17054  0.94833  Biso   1.000  O
  O11      1.0000 0.21820  0.82946  0.05167  Biso   1.000  O
  O12      1.0000 0.28180  0.17054  0.55167  Biso   1.000  O
  O13      1.0000 0.71820  0.17054  0.55167  Biso   1.000  O
  O14      1.0000 0.78180  0.82946  0.05167  Biso   1.000  O
  O15      1.0000 0.78180  0.17054  0.94833  Biso   1.000  O
  O16      1.0000 0.71820  0.82946  0.44833  Biso   1.000  O
  O17      1.0000 0.74014  0.00000  0.00000  Biso   1.000  O
  O18      1.0000 0.75986  0.00000  0.50000  Biso   1.000  O
  O19      1.0000 0.25986  0.00000  0.00000  Biso   1.000  O
  O20      1.0000 0.24014  0.00000  0.50000  Biso   1.000  O
  O21      1.0000 0.27647  0.01475  0.09047  Biso   1.000  O
  O22      1.0000 0.22353  0.98525  0.59047  Biso   1.000  O
  O23      1.0000 0.22353  0.01475  0.40953  Biso   1.000  O
  O24      1.0000 0.27647  0.98525  0.90953  Biso   1.000  O
  O25      1.0000 0.72353  0.98525  0.90953  Biso   1.000  O
  O26      1.0000 0.77647  0.01475  0.40953  Biso   1.000  O
  O27      1.0000 0.77647  0.98525  0.59047  Biso   1.000  O
  O28      1.0000 0.72353  0.01475  0.09047  Biso   1.000  O
  O29      1.0000 0.00000  0.56280  0.39673  Biso   1.000  O
  O30      1.0000 0.50000  0.43720  0.89673  Biso   1.000  O
  O31      1.0000 0.50000  0.56280  0.10327  Biso   1.000  O
  O32      1.0000 0.00000  0.43720  0.60327  Biso   1.000  O
  O33      1.0000 0.25457  0.14260  0.16132  Biso   1.000  O
  O34      1.0000 0.24543  0.85740  0.66132  Biso   1.000  O
  O35      1.0000 0.24543  0.14260  0.33868  Biso   1.000  O
  O36      1.0000 0.25457  0.85740  0.83868  Biso   1.000  O
  O37      1.0000 0.74543  0.85740  0.83868  Biso   1.000  O
  O38      1.0000 0.75457  0.14260  0.33868  Biso   1.000  O
  O39      1.0000 0.75457  0.85740  0.66132  Biso   1.000  O
  O40      1.0000 0.74543  0.14260  0.16132  Biso   1.000  O
  O41      1.0000 0.28255  0.36912  0.58156  Biso   1.000  O
  O42      1.0000 0.21745  0.63088  0.08156  Biso   1.000  O
  O43      1.0000 0.21745  0.36912  0.91844  Biso   1.000  O
  O44      1.0000 0.28255  0.63088  0.41844  Biso   1.000  O
  O45      1.0000 0.71745  0.63088  0.41844  Biso   1.000  O
  O46      1.0000 0.78255  0.36912  0.91844  Biso   1.000  O
  O47      1.0000 0.78255  0.63088  0.08156  Biso   1.000  O
  O48      1.0000 0.71745  0.36912  0.58156  Biso   1.000  O
  O49      1.0000 0.70667  0.21906  0.42249  Biso   1.000  O
  O50      1.0000 0.79333  0.78094  0.92249  Biso   1.000  O
  O51      1.0000 0.79333  0.21906  0.07751  Biso   1.000  O
  O52      1.0000 0.70667  0.78094  0.57751  Biso   1.000  O
  O53      1.0000 0.29333  0.78094  0.57751  Biso   1.000  O
  O54      1.0000 0.20667  0.21906  0.07751  Biso   1.000  O
  O55      1.0000 0.20667  0.78094  0.92249  Biso   1.000  O
  O56      1.0000 0.29333  0.21906  0.42249  Biso   1.000  O
  O57      1.0000 0.00000  0.08903  0.11513  Biso   1.000  O
  O58      1.0000 0.50000  0.91097  0.61513  Biso   1.000  O
  O59      1.0000 0.50000  0.08903  0.38487  Biso   1.000  O
  O60      1.0000 0.00000  0.91097  0.88487  Biso   1.000  O
  O61      1.0000 0.73932  0.34066  0.30788  Biso   1.000  O
  O62      1.0000 0.76068  0.65934  0.80788  Biso   1.000  O
  O63      1.0000 0.76068  0.34066  0.19212  Biso   1.000  O
  O64      1.0000 0.73932  0.65934  0.69212  Biso   1.000  O
  O65      1.0000 0.26068  0.65934  0.69212  Biso   1.000  O
  O66      1.0000 0.23932  0.34066  0.19212  Biso   1.000  O
  O67      1.0000 0.23932  0.65934  0.80788  Biso   1.000  O
  O68      1.0000 0.26068  0.34066  0.30788  Biso   1.000  O
  O69      1.0000 0.00000  0.71647  0.56889  Biso   1.000  O
  O70      1.0000 0.50000  0.28352  0.06889  Biso   1.000  O
  O71      1.0000 0.50000  0.71647  0.93111  Biso   1.000  O
  O72      1.0000 0.00000  0.28352  0.43111  Biso   1.000  O
  O73      1.0000 0.72720  0.57626  0.91475  Biso   1.000  O
  O74      1.0000 0.77280  0.42374  0.41475  Biso   1.000  O
  O75      1.0000 0.77280  0.57626  0.58525  Biso   1.000  O
  O76      1.0000 0.72720  0.42374  0.08525  Biso   1.000  O
  O77      1.0000 0.27280  0.42374  0.08525  Biso   1.000  O
  O78      1.0000 0.22720  0.57626  0.58525  Biso   1.000  O
  O79      1.0000 0.22720  0.42374  0.41475  Biso   1.000  O
  O80      1.0000 0.27280  0.57626  0.91475  Biso   1.000  O
  O81      1.0000 0.23527  0.53858  0.33878  Biso   1.000  O
  O82      1.0000 0.26473  0.46142  0.83878  Biso   1.000  O
  O83      1.0000 0.26473  0.53858  0.16122  Biso   1.000  O
  O84      1.0000 0.23527  0.46142  0.66122  Biso   1.000  O
  O85      1.0000 0.76473  0.46142  0.66122  Biso   1.000  O
  O86      1.0000 0.73527  0.53858  0.16122  Biso   1.000  O
  O87      1.0000 0.73527  0.46142  0.83878  Biso   1.000  O
  O88      1.0000 0.76473  0.53858  0.33878  Biso   1.000  O
  O89      1.0000 0.29216  0.32987  0.00459  Biso   1.000  O
  O90      1.0000 0.20784  0.67013  0.50459  Biso   1.000  O
  O91      1.0000 0.20784  0.32987  0.49541  Biso   1.000  O
  O92      1.0000 0.29216  0.67013  0.99541  Biso   1.000  O
  O93      1.0000 0.70784  0.67013  0.99541  Biso   1.000  O
  O94      1.0000 0.79216  0.32987  0.49541  Biso   1.000  O
  O95      1.0000 0.79216  0.67013  0.50459  Biso   1.000  O
  O96      1.0000 0.70784  0.32987  0.00459  Biso   1.000  O
  O97      1.0000 0.00000  0.69485  0.02329  Biso   1.000  O
  O98      1.0000 0.50000  0.30515  0.52329  Biso   1.000  O
  O99      1.0000 0.50000  0.69485  0.47671  Biso   1.000  O
  O100     1.0000 0.00000  0.30515  0.97671  Biso   1.000  O
  O101     1.0000 0.25000  0.17731  0.25000  Biso   1.000  O
  O102     1.0000 0.25000  0.82269  0.75000  Biso   1.000  O
  O103     1.0000 0.75000  0.82269  0.75000  Biso   1.000  O
  O104     1.0000 0.75000  0.17731  0.25000  Biso   1.000  O
  O105     1.0000 0.00000  0.91436  0.45519  Biso   1.000  O
  O106     1.0000 0.50000  0.08564  0.95519  Biso   1.000  O
  O107     1.0000 0.50000  0.91436  0.04481  Biso   1.000  O
  O108     1.0000 0.00000  0.08564  0.54481  Biso   1.000  O
  O109     1.0000 0.25000  0.50468  0.25000  Biso   1.000  O
  O110     1.0000 0.25000  0.49532  0.75000  Biso   1.000  O
  O111     1.0000 0.75000  0.49532  0.75000  Biso   1.000  O
  O112     1.0000 0.75000  0.50468  0.25000  Biso   1.000  O
  Ir1      1.0000 0.18896  0.22272  0.29881  Biso   1.000  Ir
  Ir2      1.0000 0.31104  0.77728  0.79881  Biso   1.000  Ir
  Ir3      1.0000 0.31104  0.22272  0.20119  Biso   1.000  Ir
  Ir4      1.0000 0.18896  0.77728  0.70119  Biso   1.000  Ir
  Ir5      1.0000 0.81104  0.77728  0.70119  Biso   1.000  Ir
  Ir6      1.0000 0.68896  0.22272  0.20119  Biso   1.000  Ir
  Ir7      1.0000 0.68896  0.77728  0.79881  Biso   1.000  Ir
  Ir8      1.0000 0.81104  0.22272  0.29881  Biso   1.000  Ir
  Ir9      1.0000 0.31159  0.53599  0.70050  Biso   1.000  Ir
  Ir10     1.0000 0.18841  0.46401  0.20050  Biso   1.000  Ir
  Ir11     1.0000 0.18841  0.53599  0.79950  Biso   1.000  Ir
  Ir12     1.0000 0.31159  0.46401  0.29950  Biso   1.000  Ir
  Ir13     1.0000 0.68841  0.46401  0.29950  Biso   1.000  Ir
  Ir14     1.0000 0.81159  0.53599  0.79950  Biso   1.000  Ir
  Ir15     1.0000 0.81159  0.46401  0.20050  Biso   1.000  Ir
  Ir16     1.0000 0.68841  0.53599  0.70050  Biso   1.000  Ir
  Ir17     1.0000 0.81447  0.46131  0.60767  Biso   1.000  Ir
  Ir18     1.0000 0.68553  0.53868  0.10767  Biso   1.000  Ir
  Ir19     1.0000 0.68553  0.46131  0.89233  Biso   1.000  Ir
  Ir20     1.0000 0.81447  0.53868  0.39233  Biso   1.000  Ir
  Ir21     1.0000 0.18553  0.53868  0.39233  Biso   1.000  Ir
  Ir22     1.0000 0.31447  0.46131  0.89233  Biso   1.000  Ir
  Ir23     1.0000 0.31447  0.53868  0.10767  Biso   1.000  Ir
  Ir24     1.0000 0.18553  0.46131  0.60767  Biso   1.000  Ir
  Ir25     1.0000 0.68222  0.29334  0.53801  Biso   1.000  Ir
  Ir26     1.0000 0.81778  0.70666  0.03801  Biso   1.000  Ir
  Ir27     1.0000 0.81778  0.29334  0.96199  Biso   1.000  Ir
  Ir28     1.0000 0.68222  0.70666  0.46199  Biso   1.000  Ir
  Ir29     1.0000 0.31778  0.70666  0.46199  Biso   1.000  Ir
  Ir30     1.0000 0.18222  0.29334  0.96199  Biso   1.000  Ir
  Ir31     1.0000 0.18222  0.70666  0.03801  Biso   1.000  Ir
  Ir32     1.0000 0.31778  0.29334  0.53801  Biso   1.000  Ir
  Ir33     1.0000 0.81401  0.93998  0.45332  Biso   1.000  Ir
  Ir34     1.0000 0.68600  0.06002  0.95332  Biso   1.000  Ir
  Ir35     1.0000 0.68600  0.93998  0.04668  Biso   1.000  Ir
  Ir36     1.0000 0.81401  0.06002  0.54668  Biso   1.000  Ir
  Ir37     1.0000 0.18600  0.06002  0.54668  Biso   1.000  Ir
  Ir38     1.0000 0.31400  0.93998  0.04668  Biso   1.000  Ir
  Ir39     1.0000 0.31400  0.06002  0.95332  Biso   1.000  Ir
  Ir40     1.0000 0.18600  0.93998  0.45332  Biso   1.000  Ir
  Ir41     1.0000 0.18437  0.88311  0.88895  Biso   1.000  Ir
  Ir42     1.0000 0.31563  0.11689  0.38895  Biso   1.000  Ir
  Ir43     1.0000 0.31563  0.88311  0.61105  Biso   1.000  Ir
  Ir44     1.0000 0.18437  0.11689  0.11105  Biso   1.000  Ir
  Ir45     1.0000 0.81563  0.11689  0.11105  Biso   1.000  Ir
  Ir46     1.0000 0.68437  0.88311  0.61105  Biso   1.000  Ir
  Ir47     1.0000 0.68437  0.11689  0.38895  Biso   1.000  Ir
  Ir48     1.0000 0.81563  0.88311  0.88895  Biso   1.000  Ir
  Ir49     1.0000 0.68215  0.68562  0.94092  Biso   1.000  Ir
  Ir50     1.0000 0.81785  0.31438  0.44092  Biso   1.000  Ir
  Ir51     1.0000 0.81785  0.68562  0.55908  Biso   1.000  Ir
  Ir52     1.0000 0.68215  0.31438  0.05908  Biso   1.000  Ir
  Ir53     1.0000 0.31785  0.31438  0.05908  Biso   1.000  Ir
  Ir54     1.0000 0.18215  0.68562  0.55908  Biso   1.000  Ir
  Ir55     1.0000 0.18215  0.31438  0.44092  Biso   1.000  Ir
  Ir56     1.0000 0.31785  0.68562  0.94092  Biso   1.000  Ir
