data_image0
_cell_length_a       7.01746
_cell_length_b       8.29453
_cell_length_c       8.30613
_cell_angle_alpha    91.4243
_cell_angle_beta     107.328
_cell_angle_gamma    109.032

_symmetry_space_group_name_H-M    "P 1"
_symmetry_int_tables_number       1

loop_
  _symmetry_equiv_pos_as_xyz
  'x, y, z'

loop_
  _atom_site_label
  _atom_site_occupancy
  _atom_site_fract_x
  _atom_site_fract_y
  _atom_site_fract_z
  _atom_site_thermal_displace_type
  _atom_site_B_iso_or_equiv
  _atom_site_type_symbol
  Ir1      1.0000 0.50000  0.00000  0.50000  Biso   1.000  Ir
  Ir2      1.0000 0.00000  0.00000  0.00000  Biso   1.000  Ir
  Ir3      1.0000 0.50000  0.00000  0.00000  Biso   1.000  Ir
  Ir4      1.0000 0.00000  0.50000  0.50000  Biso   1.000  Ir
  O1       1.0000 0.09037  0.81030  0.04891  Biso   1.000  O
  O2       1.0000 0.90963  0.18970  0.95109  Biso   1.000  O
  O3       1.0000 0.51270  0.24027  0.05094  Biso   1.000  O
  O4       1.0000 0.48731  0.75973  0.94906  Biso   1.000  O
  O5       1.0000 0.09009  0.77873  0.54776  Biso   1.000  O
  O6       1.0000 0.90991  0.22127  0.45224  Biso   1.000  O
  O7       1.0000 0.51100  0.76994  0.55142  Biso   1.000  O
  O8       1.0000 0.48901  0.23006  0.44858  Biso   1.000  O
