data_image0
_cell_length_a       7.93944
_cell_length_b       7.93944
_cell_length_c       9.27423
_cell_angle_alpha    90
_cell_angle_beta     90
_cell_angle_gamma    90

_symmetry_space_group_name_H-M    "P 1"
_symmetry_int_tables_number       1

loop_
  _symmetry_equiv_pos_as_xyz
  'x, y, z'

loop_
  _atom_site_label
  _atom_site_occupancy
  _atom_site_fract_x
  _atom_site_fract_y
  _atom_site_fract_z
  _atom_site_thermal_displace_type
  _atom_site_B_iso_or_equiv
  _atom_site_type_symbol
  O1       1.0000 0.18770  0.84219  0.08330  Biso   1.000  O
  O2       1.0000 0.81230  0.15781  0.08330  Biso   1.000  O
  O3       1.0000 0.84219  0.81230  0.91670  Biso   1.000  O
  O4       1.0000 0.15781  0.18770  0.91670  Biso   1.000  O
  O5       1.0000 0.18770  0.15781  0.58330  Biso   1.000  O
  O6       1.0000 0.81230  0.84219  0.58330  Biso   1.000  O
  O7       1.0000 0.84219  0.18770  0.41670  Biso   1.000  O
  O8       1.0000 0.15781  0.81230  0.41670  Biso   1.000  O
  O9       1.0000 0.00000  0.50000  0.09923  Biso   1.000  O
  O10      1.0000 0.50000  0.00000  0.90077  Biso   1.000  O
  O11      1.0000 0.00000  0.50000  0.59923  Biso   1.000  O
  O12      1.0000 0.50000  0.00000  0.40077  Biso   1.000  O
  O13      1.0000 0.19700  0.19700  0.25000  Biso   1.000  O
  O14      1.0000 0.80300  0.80300  0.25000  Biso   1.000  O
  O15      1.0000 0.19700  0.80300  0.75000  Biso   1.000  O
  O16      1.0000 0.80300  0.19700  0.75000  Biso   1.000  O
  Ir1      1.0000 0.04035  0.26114  0.09540  Biso   1.000  Ir
  Ir2      1.0000 0.95965  0.73886  0.09540  Biso   1.000  Ir
  Ir3      1.0000 0.26114  0.95965  0.90460  Biso   1.000  Ir
  Ir4      1.0000 0.73886  0.04035  0.90460  Biso   1.000  Ir
  Ir5      1.0000 0.04035  0.73886  0.59540  Biso   1.000  Ir
  Ir6      1.0000 0.95965  0.26114  0.59540  Biso   1.000  Ir
  Ir7      1.0000 0.26114  0.04035  0.40460  Biso   1.000  Ir
  Ir8      1.0000 0.73886  0.95965  0.40460  Biso   1.000  Ir
