data_image0
_cell_length_a       14.0254
_cell_length_b       14.0309
_cell_length_c       6.28256
_cell_angle_alpha    90
_cell_angle_beta     90
_cell_angle_gamma    90

_symmetry_space_group_name_H-M    "P 1"
_symmetry_int_tables_number       1

loop_
  _symmetry_equiv_pos_as_xyz
  'x, y, z'

loop_
  _atom_site_label
  _atom_site_occupancy
  _atom_site_fract_x
  _atom_site_fract_y
  _atom_site_fract_z
  _atom_site_thermal_displace_type
  _atom_site_B_iso_or_equiv
  _atom_site_type_symbol
  O1       1.0000 0.82017  0.68334  0.04166  Biso   1.000  O
  O2       1.0000 0.17983  0.31666  0.04166  Biso   1.000  O
  O3       1.0000 0.67983  0.18334  0.95834  Biso   1.000  O
  O4       1.0000 0.32017  0.81666  0.95834  Biso   1.000  O
  O5       1.0000 0.18317  0.67954  0.45756  Biso   1.000  O
  O6       1.0000 0.81683  0.32046  0.45756  Biso   1.000  O
  O7       1.0000 0.31683  0.17954  0.54244  Biso   1.000  O
  O8       1.0000 0.68317  0.82046  0.54244  Biso   1.000  O
  O9       1.0000 0.86038  0.89162  0.24794  Biso   1.000  O
  O10      1.0000 0.13962  0.10838  0.24794  Biso   1.000  O
  O11      1.0000 0.63962  0.39162  0.75206  Biso   1.000  O
  O12      1.0000 0.36038  0.60838  0.75206  Biso   1.000  O
  O13      1.0000 0.60828  0.36043  0.25216  Biso   1.000  O
  O14      1.0000 0.39172  0.63956  0.25216  Biso   1.000  O
  O15      1.0000 0.89172  0.86043  0.74784  Biso   1.000  O
  O16      1.0000 0.10828  0.13956  0.74784  Biso   1.000  O
  O17      1.0000 0.61904  0.95610  0.91517  Biso   1.000  O
  O18      1.0000 0.38096  0.04390  0.91517  Biso   1.000  O
  O19      1.0000 0.88096  0.45610  0.08483  Biso   1.000  O
  O20      1.0000 0.11904  0.54390  0.08483  Biso   1.000  O
  O21      1.0000 0.23549  0.96164  0.57879  Biso   1.000  O
  O22      1.0000 0.76451  0.03836  0.57879  Biso   1.000  O
  O23      1.0000 0.26451  0.46164  0.42121  Biso   1.000  O
  O24      1.0000 0.73549  0.53836  0.42121  Biso   1.000  O
  O25      1.0000 0.45612  0.88137  0.58686  Biso   1.000  O
  O26      1.0000 0.54388  0.11863  0.58686  Biso   1.000  O
  O27      1.0000 0.04388  0.38137  0.41313  Biso   1.000  O
  O28      1.0000 0.95612  0.61863  0.41313  Biso   1.000  O
  O29      1.0000 0.53835  0.73555  0.92211  Biso   1.000  O
  O30      1.0000 0.46165  0.26445  0.92211  Biso   1.000  O
  O31      1.0000 0.96165  0.23555  0.07789  Biso   1.000  O
  O32      1.0000 0.03835  0.76445  0.07789  Biso   1.000  O
  Ir1      1.0000 0.15573  0.42420  0.23846  Biso   1.000  Ir
  Ir2      1.0000 0.84428  0.57580  0.23846  Biso   1.000  Ir
  Ir3      1.0000 0.34428  0.92420  0.76154  Biso   1.000  Ir
  Ir4      1.0000 0.65573  0.07580  0.76154  Biso   1.000  Ir
  Ir5      1.0000 0.59754  0.30024  0.97227  Biso   1.000  Ir
  Ir6      1.0000 0.40247  0.69976  0.97227  Biso   1.000  Ir
  Ir7      1.0000 0.90247  0.80024  0.02773  Biso   1.000  Ir
  Ir8      1.0000 0.09754  0.19976  0.02773  Biso   1.000  Ir
  Ir9      1.0000 0.57587  0.84449  0.74013  Biso   1.000  Ir
  Ir10     1.0000 0.42413  0.15551  0.74013  Biso   1.000  Ir
  Ir11     1.0000 0.92413  0.34449  0.25987  Biso   1.000  Ir
  Ir12     1.0000 0.07587  0.65551  0.25987  Biso   1.000  Ir
  Ir13     1.0000 0.69978  0.40255  0.47208  Biso   1.000  Ir
  Ir14     1.0000 0.30022  0.59745  0.47208  Biso   1.000  Ir
  Ir15     1.0000 0.80022  0.90255  0.52792  Biso   1.000  Ir
  Ir16     1.0000 0.19978  0.09745  0.52792  Biso   1.000  Ir
