data_image0
_cell_length_a       5.42683
_cell_length_b       5.42683
_cell_length_c       103.153
_cell_angle_alpha    90
_cell_angle_beta     90
_cell_angle_gamma    120

_symmetry_space_group_name_H-M    "P 1"
_symmetry_int_tables_number       1

loop_
  _symmetry_equiv_pos_as_xyz
  'x, y, z'

loop_
  _atom_site_label
  _atom_site_occupancy
  _atom_site_fract_x
  _atom_site_fract_y
  _atom_site_fract_z
  _atom_site_thermal_displace_type
  _atom_site_B_iso_or_equiv
  _atom_site_type_symbol
  Ir1      1.0000 0.00000  0.00000  0.80357  Biso   1.000  Ir
  Ir2      1.0000 0.00000  0.00000  0.51784  Biso   1.000  Ir
  Ir3      1.0000 0.66667  0.33333  0.30358  Biso   1.000  Ir
  Ir4      1.0000 0.66667  0.33333  0.16071  Biso   1.000  Ir
  Ir5      1.0000 0.00000  0.00000  0.66071  Biso   1.000  Ir
  Ir6      1.0000 0.00000  0.00000  0.23215  Biso   1.000  Ir
  Ir7      1.0000 0.00000  0.00000  0.94643  Biso   1.000  Ir
  Ir8      1.0000 0.66667  0.33333  0.73214  Biso   1.000  Ir
  Ir9      1.0000 0.66667  0.33333  0.01785  Biso   1.000  Ir
  Ir10     1.0000 0.66667  0.33333  0.58928  Biso   1.000  Ir
  Ir11     1.0000 0.66667  0.33333  0.44644  Biso   1.000  Ir
  Ir12     1.0000 0.00000  0.00000  0.08929  Biso   1.000  Ir
  Ir13     1.0000 0.00000  0.00000  0.37500  Biso   1.000  Ir
  Ir14     1.0000 0.00000  0.00000  0.87500  Biso   1.000  Ir
  O1       1.0000 0.66667  0.33333  0.07254  Biso   1.000  O
  O2       1.0000 0.33333  0.66667  0.53460  Biso   1.000  O
  O3       1.0000 0.33333  0.66667  0.17746  Biso   1.000  O
  O4       1.0000 0.33333  0.66667  0.10604  Biso   1.000  O
  O5       1.0000 0.33333  0.66667  0.46318  Biso   1.000  O
  O6       1.0000 0.66667  0.33333  0.78683  Biso   1.000  O
  O7       1.0000 0.00000  0.00000  0.71538  Biso   1.000  O
  O8       1.0000 0.00000  0.00000  0.28681  Biso   1.000  O
  O9       1.0000 0.66667  0.33333  0.64395  Biso   1.000  O
  O10      1.0000 0.33333  0.66667  0.32032  Biso   1.000  O
  O11      1.0000 0.33333  0.66667  0.60604  Biso   1.000  O
  O12      1.0000 0.00000  0.00000  0.14396  Biso   1.000  O
  O13      1.0000 0.33333  0.66667  0.82033  Biso   1.000  O
  O14      1.0000 0.33333  0.66667  0.96317  Biso   1.000  O
  O15      1.0000 0.00000  0.00000  0.00113  Biso   1.000  O
  O16      1.0000 0.66667  0.33333  0.85826  Biso   1.000  O
  O17      1.0000 0.66667  0.33333  0.92968  Biso   1.000  O
  O18      1.0000 0.33333  0.66667  0.67746  Biso   1.000  O
  O19      1.0000 0.66667  0.33333  0.21540  Biso   1.000  O
  O20      1.0000 0.33333  0.66667  0.03460  Biso   1.000  O
  O21      1.0000 0.33333  0.66667  0.89174  Biso   1.000  O
  O22      1.0000 0.33333  0.66667  0.24890  Biso   1.000  O
  O23      1.0000 0.66667  0.33333  0.35826  Biso   1.000  O
  O24      1.0000 0.33333  0.66667  0.39174  Biso   1.000  O
  O25      1.0000 0.66667  0.33333  0.50109  Biso   1.000  O
  O26      1.0000 0.00000  0.00000  0.57255  Biso   1.000  O
  O27      1.0000 0.00000  0.00000  0.42968  Biso   1.000  O
  O28      1.0000 0.33333  0.66667  0.74889  Biso   1.000  O
