data_image0
_cell_length_a       5.42398
_cell_length_b       5.42398
_cell_length_c       161.688
_cell_angle_alpha    90
_cell_angle_beta     90
_cell_angle_gamma    120

_symmetry_space_group_name_H-M    "P 1"
_symmetry_int_tables_number       1

loop_
  _symmetry_equiv_pos_as_xyz
  'x, y, z'

loop_
  _atom_site_label
  _atom_site_occupancy
  _atom_site_fract_x
  _atom_site_fract_y
  _atom_site_fract_z
  _atom_site_thermal_displace_type
  _atom_site_B_iso_or_equiv
  _atom_site_type_symbol
  Ir1      1.0000 0.00000  0.00000  0.23864  Biso   1.000  Ir
  Ir2      1.0000 0.66667  0.33333  0.92044  Biso   1.000  Ir
  Ir3      1.0000 0.66667  0.33333  0.87500  Biso   1.000  Ir
  Ir4      1.0000 0.66667  0.33333  0.69320  Biso   1.000  Ir
  Ir5      1.0000 0.33333  0.66667  0.19318  Biso   1.000  Ir
  Ir6      1.0000 0.00000  0.00000  0.01137  Biso   1.000  Ir
  Ir7      1.0000 0.66667  0.33333  0.73864  Biso   1.000  Ir
  Ir8      1.0000 0.00000  0.00000  0.82953  Biso   1.000  Ir
  Ir9      1.0000 0.66667  0.33333  0.32954  Biso   1.000  Ir
  Ir10     1.0000 0.33333  0.66667  0.05681  Biso   1.000  Ir
  Ir11     1.0000 0.00000  0.00000  0.37500  Biso   1.000  Ir
  Ir12     1.0000 0.33333  0.66667  0.14773  Biso   1.000  Ir
  Ir13     1.0000 0.66667  0.33333  0.51137  Biso   1.000  Ir
  Ir14     1.0000 0.00000  0.00000  0.28408  Biso   1.000  Ir
  Ir15     1.0000 0.00000  0.00000  0.96591  Biso   1.000  Ir
  Ir16     1.0000 0.00000  0.00000  0.10227  Biso   1.000  Ir
  Ir17     1.0000 0.66667  0.33333  0.55683  Biso   1.000  Ir
  Ir18     1.0000 0.00000  0.00000  0.42045  Biso   1.000  Ir
  Ir19     1.0000 0.00000  0.00000  0.60227  Biso   1.000  Ir
  Ir20     1.0000 0.66667  0.33333  0.46591  Biso   1.000  Ir
  Ir21     1.0000 0.00000  0.00000  0.78409  Biso   1.000  Ir
  Ir22     1.0000 0.00000  0.00000  0.64773  Biso   1.000  Ir
  O1       1.0000 0.66667  0.33333  0.84023  Biso   1.000  O
  O2       1.0000 0.33333  0.66667  0.22794  Biso   1.000  O
  O3       1.0000 0.33333  0.66667  0.54613  Biso   1.000  O
  O4       1.0000 0.00000  0.00000  0.34023  Biso   1.000  O
  O5       1.0000 0.33333  0.66667  0.45520  Biso   1.000  O
  O6       1.0000 0.33333  0.66667  0.36430  Biso   1.000  O
  O7       1.0000 0.33333  0.66667  0.63705  Biso   1.000  O
  O8       1.0000 0.00000  0.00000  0.52206  Biso   1.000  O
  O9       1.0000 0.33333  0.66667  0.31885  Biso   1.000  O
  O10      1.0000 0.66667  0.33333  0.43114  Biso   1.000  O
  O11      1.0000 0.00000  0.00000  0.70389  Biso   1.000  O
  O12      1.0000 0.33333  0.66667  0.72794  Biso   1.000  O
  O13      1.0000 0.33333  0.66667  0.95520  Biso   1.000  O
  O14      1.0000 0.33333  0.66667  0.59158  Biso   1.000  O
  O15      1.0000 0.66667  0.33333  0.02206  Biso   1.000  O
  O16      1.0000 0.66667  0.33333  0.61296  Biso   1.000  O
  O17      1.0000 0.33333  0.66667  0.40976  Biso   1.000  O
  O18      1.0000 0.00000  0.00000  0.93114  Biso   1.000  O
  O19      1.0000 0.66667  0.33333  0.29477  Biso   1.000  O
  O20      1.0000 0.33333  0.66667  0.27340  Biso   1.000  O
  O21      1.0000 0.00000  0.00000  0.74933  Biso   1.000  O
  O22      1.0000 0.00000  0.00000  0.04612  Biso   1.000  O
  O23      1.0000 0.33333  0.66667  0.81885  Biso   1.000  O
  O24      1.0000 0.33333  0.66667  0.68251  Biso   1.000  O
  O25      1.0000 0.66667  0.33333  0.38569  Biso   1.000  O
  O26      1.0000 0.00000  0.00000  0.88569  Biso   1.000  O
  O27      1.0000 0.00000  0.00000  0.18249  Biso   1.000  O
  O28      1.0000 0.66667  0.33333  0.97659  Biso   1.000  O
  O29      1.0000 0.00000  0.00000  0.47660  Biso   1.000  O
  O30      1.0000 0.33333  0.66667  0.90976  Biso   1.000  O
  O31      1.0000 0.33333  0.66667  0.00069  Biso   1.000  O
  O32      1.0000 0.33333  0.66667  0.77340  Biso   1.000  O
  O33      1.0000 0.66667  0.33333  0.79477  Biso   1.000  O
  O34      1.0000 0.66667  0.33333  0.15843  Biso   1.000  O
  O35      1.0000 0.33333  0.66667  0.86430  Biso   1.000  O
  O36      1.0000 0.66667  0.33333  0.20388  Biso   1.000  O
  O37      1.0000 0.33333  0.66667  0.09158  Biso   1.000  O
  O38      1.0000 0.00000  0.00000  0.13704  Biso   1.000  O
  O39      1.0000 0.33333  0.66667  0.50070  Biso   1.000  O
  O40      1.0000 0.00000  0.00000  0.56752  Biso   1.000  O
  O41      1.0000 0.66667  0.33333  0.06751  Biso   1.000  O
  O42      1.0000 0.66667  0.33333  0.11296  Biso   1.000  O
  O43      1.0000 0.66667  0.33333  0.65843  Biso   1.000  O
  O44      1.0000 0.66667  0.33333  0.24933  Biso   1.000  O
