data_image0
_cell_length_a       13.1866
_cell_length_b       11.5547
_cell_length_c       5.30108
_cell_angle_alpha    90
_cell_angle_beta     101.592
_cell_angle_gamma    90

_symmetry_space_group_name_H-M    "P 1"
_symmetry_int_tables_number       1

loop_
  _symmetry_equiv_pos_as_xyz
  'x, y, z'

loop_
  _atom_site_label
  _atom_site_occupancy
  _atom_site_fract_x
  _atom_site_fract_y
  _atom_site_fract_z
  _atom_site_thermal_displace_type
  _atom_site_B_iso_or_equiv
  _atom_site_type_symbol
  O1       1.0000 0.66735  0.70766  0.25000  Biso   1.000  O
  O2       1.0000 0.66735  0.29234  0.75000  Biso   1.000  O
  O3       1.0000 0.83267  0.95764  0.75001  Biso   1.000  O
  O4       1.0000 0.83267  0.04236  0.25001  Biso   1.000  O
  O5       1.0000 0.16735  0.20766  0.25000  Biso   1.000  O
  O6       1.0000 0.16735  0.79234  0.75000  Biso   1.000  O
  O7       1.0000 0.33267  0.45764  0.75001  Biso   1.000  O
  O8       1.0000 0.33267  0.54236  0.25001  Biso   1.000  O
  Ir1      1.0000 0.37500  0.62501  1.00000  Biso   1.000  Ir
  Ir2      1.0000 0.37500  0.37499  0.50000  Biso   1.000  Ir
  Ir3      1.0000 0.87500  0.12501  1.00000  Biso   1.000  Ir
  Ir4      1.0000 0.87500  0.87499  0.50000  Biso   1.000  Ir
