data_image0
_cell_length_a       9.73685
_cell_length_b       8.47387
_cell_length_c       4.76715
_cell_angle_alpha    90
_cell_angle_beta     90
_cell_angle_gamma    90

_symmetry_space_group_name_H-M    "P 1"
_symmetry_int_tables_number       1

loop_
  _symmetry_equiv_pos_as_xyz
  'x, y, z'

loop_
  _atom_site_label
  _atom_site_occupancy
  _atom_site_fract_x
  _atom_site_fract_y
  _atom_site_fract_z
  _atom_site_thermal_displace_type
  _atom_site_B_iso_or_equiv
  _atom_site_type_symbol
  O1       1.0000 0.79399  0.25000  0.80717  Biso   1.000  O
  O2       1.0000 0.70601  0.75000  0.30717  Biso   1.000  O
  O3       1.0000 0.20601  0.75000  0.19283  Biso   1.000  O
  O4       1.0000 0.29399  0.25000  0.69283  Biso   1.000  O
  O5       1.0000 0.54443  0.41408  0.77331  Biso   1.000  O
  O6       1.0000 0.95557  0.58592  0.27331  Biso   1.000  O
  O7       1.0000 0.45557  0.91408  0.22669  Biso   1.000  O
  O8       1.0000 0.04443  0.08592  0.72669  Biso   1.000  O
  O9       1.0000 0.45557  0.58592  0.22669  Biso   1.000  O
  O10      1.0000 0.04443  0.41408  0.72669  Biso   1.000  O
  O11      1.0000 0.54443  0.08592  0.77331  Biso   1.000  O
  O12      1.0000 0.95557  0.91408  0.27331  Biso   1.000  O
  O13      1.0000 0.79985  0.92693  0.77222  Biso   1.000  O
  O14      1.0000 0.70015  0.07307  0.27222  Biso   1.000  O
  O15      1.0000 0.20015  0.42693  0.22778  Biso   1.000  O
  O16      1.0000 0.29984  0.57307  0.72778  Biso   1.000  O
  O17      1.0000 0.20015  0.07307  0.22778  Biso   1.000  O
  O18      1.0000 0.29984  0.92693  0.72778  Biso   1.000  O
  O19      1.0000 0.79985  0.57307  0.77222  Biso   1.000  O
  O20      1.0000 0.70015  0.42693  0.27222  Biso   1.000  O
  O21      1.0000 0.46076  0.25000  0.25526  Biso   1.000  O
  O22      1.0000 0.03924  0.75000  0.75526  Biso   1.000  O
  O23      1.0000 0.53924  0.75000  0.74474  Biso   1.000  O
  O24      1.0000 0.96076  0.25000  0.24474  Biso   1.000  O
  Ir1      1.0000 0.36704  0.40008  0.99180  Biso   1.000  Ir
  Ir2      1.0000 0.13296  0.59992  0.49180  Biso   1.000  Ir
  Ir3      1.0000 0.63296  0.90008  0.00820  Biso   1.000  Ir
  Ir4      1.0000 0.86704  0.09992  0.50820  Biso   1.000  Ir
  Ir5      1.0000 0.63296  0.59992  0.00820  Biso   1.000  Ir
  Ir6      1.0000 0.86704  0.40008  0.50820  Biso   1.000  Ir
  Ir7      1.0000 0.36704  0.09992  0.99180  Biso   1.000  Ir
  Ir8      1.0000 0.13296  0.90008  0.49180  Biso   1.000  Ir
  Ir9      1.0000 0.13491  0.25000  0.98079  Biso   1.000  Ir
  Ir10     1.0000 0.36509  0.75000  0.48079  Biso   1.000  Ir
  Ir11     1.0000 0.86509  0.75000  0.01920  Biso   1.000  Ir
  Ir12     1.0000 0.63491  0.25000  0.51921  Biso   1.000  Ir
