data_image0
_cell_length_a       5.36172
_cell_length_b       5.36172
_cell_length_c       83.0312
_cell_angle_alpha    90
_cell_angle_beta     90
_cell_angle_gamma    120

_symmetry_space_group_name_H-M    "P 1"
_symmetry_int_tables_number       1

loop_
  _symmetry_equiv_pos_as_xyz
  'x, y, z'

loop_
  _atom_site_label
  _atom_site_occupancy
  _atom_site_fract_x
  _atom_site_fract_y
  _atom_site_fract_z
  _atom_site_thermal_displace_type
  _atom_site_B_iso_or_equiv
  _atom_site_type_symbol
  Ir1      1.0000 0.00000  0.00000  0.41667  Biso   1.000  Ir
  Ir2      1.0000 0.00000  0.00000  0.58333  Biso   1.000  Ir
  Ir3      1.0000 0.00000  0.00000  0.50000  Biso   1.000  Ir
  Ir4      1.0000 0.33333  0.66667  0.66667  Biso   1.000  Ir
  Ir5      1.0000 0.66667  0.33333  0.75000  Biso   1.000  Ir
  Ir6      1.0000 0.66667  0.33333  0.91666  Biso   1.000  Ir
  Ir7      1.0000 0.66667  0.33333  0.83333  Biso   1.000  Ir
  Ir8      1.0000 0.00000  0.00000  0.00000  Biso   1.000  Ir
  Ir9      1.0000 0.33333  0.66667  0.08334  Biso   1.000  Ir
  Ir10     1.0000 0.33333  0.66667  0.25000  Biso   1.000  Ir
  Ir11     1.0000 0.33333  0.66667  0.16667  Biso   1.000  Ir
  Ir12     1.0000 0.66667  0.33333  0.33333  Biso   1.000  Ir
  O1       1.0000 0.00000  0.00000  0.35423  Biso   1.000  O
  O2       1.0000 0.00000  0.00000  0.64577  Biso   1.000  O
  O3       1.0000 0.33333  0.66667  0.39576  Biso   1.000  O
  O4       1.0000 0.66667  0.33333  0.60424  Biso   1.000  O
  O5       1.0000 0.66667  0.33333  0.43757  Biso   1.000  O
  O6       1.0000 0.33333  0.66667  0.56243  Biso   1.000  O
  O7       1.0000 0.33333  0.66667  0.47910  Biso   1.000  O
  O8       1.0000 0.66667  0.33333  0.52090  Biso   1.000  O
  O9       1.0000 0.66667  0.33333  0.68757  Biso   1.000  O
  O10      1.0000 0.66667  0.33333  0.97910  Biso   1.000  O
  O11      1.0000 0.00000  0.00000  0.72910  Biso   1.000  O
  O12      1.0000 0.33333  0.66667  0.93757  Biso   1.000  O
  O13      1.0000 0.33333  0.66667  0.77090  Biso   1.000  O
  O14      1.0000 0.00000  0.00000  0.89577  Biso   1.000  O
  O15      1.0000 0.00000  0.00000  0.81243  Biso   1.000  O
  O16      1.0000 0.33333  0.66667  0.85423  Biso   1.000  O
  O17      1.0000 0.33333  0.66667  0.02090  Biso   1.000  O
  O18      1.0000 0.33333  0.66667  0.31243  Biso   1.000  O
  O19      1.0000 0.66667  0.33333  0.06243  Biso   1.000  O
  O20      1.0000 0.00000  0.00000  0.27091  Biso   1.000  O
  O21      1.0000 0.00000  0.00000  0.10423  Biso   1.000  O
  O22      1.0000 0.66667  0.33333  0.22910  Biso   1.000  O
  O23      1.0000 0.66667  0.33333  0.14577  Biso   1.000  O
  O24      1.0000 0.00000  0.00000  0.18757  Biso   1.000  O
