data_image0
_cell_length_a       8.96858
_cell_length_b       5.07343
_cell_length_c       10.1569
_cell_angle_alpha    90
_cell_angle_beta     90
_cell_angle_gamma    90

_symmetry_space_group_name_H-M    "P 1"
_symmetry_int_tables_number       1

loop_
  _symmetry_equiv_pos_as_xyz
  'x, y, z'

loop_
  _atom_site_label
  _atom_site_occupancy
  _atom_site_fract_x
  _atom_site_fract_y
  _atom_site_fract_z
  _atom_site_thermal_displace_type
  _atom_site_B_iso_or_equiv
  _atom_site_type_symbol
  O1       1.0000 0.00000  0.00000  0.00000  Biso   1.000  O
  O2       1.0000 0.50000  0.00000  0.00000  Biso   1.000  O
  O3       1.0000 0.00000  0.00000  0.50000  Biso   1.000  O
  O4       1.0000 0.50000  0.00000  0.50000  Biso   1.000  O
  O5       1.0000 0.25000  0.50000  0.97268  Biso   1.000  O
  O6       1.0000 0.75000  0.50000  0.52732  Biso   1.000  O
  O7       1.0000 0.75000  0.50000  0.02732  Biso   1.000  O
  O8       1.0000 0.25000  0.50000  0.47268  Biso   1.000  O
  O9       1.0000 0.25000  0.00000  0.78295  Biso   1.000  O
  O10      1.0000 0.75000  0.00000  0.71705  Biso   1.000  O
  O11      1.0000 0.75000  0.00000  0.21705  Biso   1.000  O
  O12      1.0000 0.25000  0.00000  0.28295  Biso   1.000  O
  O13      1.0000 0.00000  0.58125  0.25000  Biso   1.000  O
  O14      1.0000 0.50000  0.41875  0.25000  Biso   1.000  O
  O15      1.0000 0.00000  0.41875  0.75000  Biso   1.000  O
  O16      1.0000 0.50000  0.58125  0.75000  Biso   1.000  O
  Ir1      1.0000 0.61906  0.76603  0.61569  Biso   1.000  Ir
  Ir2      1.0000 0.88094  0.23397  0.61569  Biso   1.000  Ir
  Ir3      1.0000 0.38094  0.76603  0.88431  Biso   1.000  Ir
  Ir4      1.0000 0.11906  0.23397  0.88431  Biso   1.000  Ir
  Ir5      1.0000 0.38094  0.23397  0.38431  Biso   1.000  Ir
  Ir6      1.0000 0.11906  0.76603  0.38431  Biso   1.000  Ir
  Ir7      1.0000 0.61906  0.23397  0.11569  Biso   1.000  Ir
  Ir8      1.0000 0.88094  0.76603  0.11569  Biso   1.000  Ir
