data_image0
_cell_length_a       9.09369
_cell_length_b       17.2758
_cell_length_c       22.8951
_cell_angle_alpha    90
_cell_angle_beta     90
_cell_angle_gamma    90

_symmetry_space_group_name_H-M    "P 1"
_symmetry_int_tables_number       1

loop_
  _symmetry_equiv_pos_as_xyz
  'x, y, z'

loop_
  _atom_site_label
  _atom_site_occupancy
  _atom_site_fract_x
  _atom_site_fract_y
  _atom_site_fract_z
  _atom_site_thermal_displace_type
  _atom_site_B_iso_or_equiv
  _atom_site_type_symbol
  O1       1.0000 0.83302  0.26155  0.89980  Biso   1.000  O
  O2       1.0000 0.16698  0.73845  0.89980  Biso   1.000  O
  O3       1.0000 0.66698  0.76155  0.60020  Biso   1.000  O
  O4       1.0000 0.33302  0.23845  0.60020  Biso   1.000  O
  O5       1.0000 0.16698  0.73845  0.10020  Biso   1.000  O
  O6       1.0000 0.83302  0.26155  0.10020  Biso   1.000  O
  O7       1.0000 0.33302  0.23845  0.39980  Biso   1.000  O
  O8       1.0000 0.66698  0.76155  0.39980  Biso   1.000  O
  O9       1.0000 0.75777  0.09736  0.68645  Biso   1.000  O
  O10      1.0000 0.24223  0.90264  0.68645  Biso   1.000  O
  O11      1.0000 0.74223  0.59736  0.81355  Biso   1.000  O
  O12      1.0000 0.25777  0.40264  0.81355  Biso   1.000  O
  O13      1.0000 0.24223  0.90264  0.31355  Biso   1.000  O
  O14      1.0000 0.75777  0.09736  0.31355  Biso   1.000  O
  O15      1.0000 0.25777  0.40264  0.18645  Biso   1.000  O
  O16      1.0000 0.74223  0.59736  0.18645  Biso   1.000  O
  O17      1.0000 0.17938  0.23913  0.87188  Biso   1.000  O
  O18      1.0000 0.82062  0.76087  0.87188  Biso   1.000  O
  O19      1.0000 0.32062  0.73913  0.62812  Biso   1.000  O
  O20      1.0000 0.67938  0.26087  0.62812  Biso   1.000  O
  O21      1.0000 0.82062  0.76087  0.12812  Biso   1.000  O
  O22      1.0000 0.17938  0.23913  0.12812  Biso   1.000  O
  O23      1.0000 0.67938  0.26087  0.37188  Biso   1.000  O
  O24      1.0000 0.32062  0.73913  0.37188  Biso   1.000  O
  O25      1.0000 0.79502  0.25323  0.76118  Biso   1.000  O
  O26      1.0000 0.20498  0.74677  0.76118  Biso   1.000  O
  O27      1.0000 0.70498  0.75323  0.73882  Biso   1.000  O
  O28      1.0000 0.29502  0.24677  0.73882  Biso   1.000  O
  O29      1.0000 0.20498  0.74677  0.23882  Biso   1.000  O
  O30      1.0000 0.79502  0.25323  0.23882  Biso   1.000  O
  O31      1.0000 0.29502  0.24677  0.26118  Biso   1.000  O
  O32      1.0000 0.70498  0.75323  0.26118  Biso   1.000  O
  O33      1.0000 0.98749  0.77995  0.65470  Biso   1.000  O
  O34      1.0000 0.01251  0.22005  0.65470  Biso   1.000  O
  O35      1.0000 0.51251  0.27995  0.84530  Biso   1.000  O
  O36      1.0000 0.48749  0.72005  0.84530  Biso   1.000  O
  O37      1.0000 0.01251  0.22005  0.34530  Biso   1.000  O
  O38      1.0000 0.98749  0.77995  0.34530  Biso   1.000  O
  O39      1.0000 0.48749  0.72005  0.15470  Biso   1.000  O
  O40      1.0000 0.51251  0.27995  0.15470  Biso   1.000  O
  O41      1.0000 0.05708  0.21033  0.00000  Biso   1.000  O
  O42      1.0000 0.94292  0.78967  0.00000  Biso   1.000  O
  O43      1.0000 0.44292  0.71033  0.50000  Biso   1.000  O
  O44      1.0000 0.55708  0.28967  0.50000  Biso   1.000  O
  O45      1.0000 0.47677  0.40881  0.39761  Biso   1.000  O
  O46      1.0000 0.52323  0.59119  0.39761  Biso   1.000  O
  O47      1.0000 0.02323  0.90881  0.10239  Biso   1.000  O
  O48      1.0000 0.97677  0.09119  0.10239  Biso   1.000  O
  O49      1.0000 0.52323  0.59119  0.60239  Biso   1.000  O
  O50      1.0000 0.47677  0.40881  0.60239  Biso   1.000  O
  O51      1.0000 0.97677  0.09119  0.89761  Biso   1.000  O
  O52      1.0000 0.02323  0.90881  0.89761  Biso   1.000  O
  O53      1.0000 0.75153  0.41543  0.17176  Biso   1.000  O
  O54      1.0000 0.24847  0.58457  0.17176  Biso   1.000  O
  O55      1.0000 0.74847  0.91543  0.32824  Biso   1.000  O
  O56      1.0000 0.25153  0.08457  0.32824  Biso   1.000  O
  O57      1.0000 0.24847  0.58457  0.82824  Biso   1.000  O
  O58      1.0000 0.75153  0.41543  0.82824  Biso   1.000  O
  O59      1.0000 0.25153  0.08457  0.67176  Biso   1.000  O
  O60      1.0000 0.74847  0.91543  0.67176  Biso   1.000  O
  O61      1.0000 0.00000  0.50000  0.25004  Biso   1.000  O
  O62      1.0000 0.50000  0.00000  0.24996  Biso   1.000  O
  O63      1.0000 0.00000  0.50000  0.74996  Biso   1.000  O
  O64      1.0000 0.50000  0.00000  0.75004  Biso   1.000  O
  O65      1.0000 0.17569  0.01290  0.20167  Biso   1.000  O
  O66      1.0000 0.82431  0.98710  0.20167  Biso   1.000  O
  O67      1.0000 0.32431  0.51290  0.29833  Biso   1.000  O
  O68      1.0000 0.67569  0.48710  0.29833  Biso   1.000  O
  O69      1.0000 0.82431  0.98710  0.79833  Biso   1.000  O
  O70      1.0000 0.17569  0.01290  0.79833  Biso   1.000  O
  O71      1.0000 0.67569  0.48710  0.70167  Biso   1.000  O
  O72      1.0000 0.32431  0.51290  0.70167  Biso   1.000  O
  Ir1      1.0000 0.22183  0.19735  0.66690  Biso   1.000  Ir
  Ir2      1.0000 0.77817  0.80265  0.66690  Biso   1.000  Ir
  Ir3      1.0000 0.27817  0.69735  0.83310  Biso   1.000  Ir
  Ir4      1.0000 0.72183  0.30265  0.83310  Biso   1.000  Ir
  Ir5      1.0000 0.77817  0.80265  0.33310  Biso   1.000  Ir
  Ir6      1.0000 0.22183  0.19735  0.33310  Biso   1.000  Ir
  Ir7      1.0000 0.72183  0.30265  0.16690  Biso   1.000  Ir
  Ir8      1.0000 0.27817  0.69735  0.16690  Biso   1.000  Ir
  Ir9      1.0000 0.20797  0.49950  0.77332  Biso   1.000  Ir
  Ir10     1.0000 0.79203  0.50050  0.77332  Biso   1.000  Ir
  Ir11     1.0000 0.29203  0.99950  0.72668  Biso   1.000  Ir
  Ir12     1.0000 0.70797  0.00050  0.72668  Biso   1.000  Ir
  Ir13     1.0000 0.79203  0.50050  0.22668  Biso   1.000  Ir
  Ir14     1.0000 0.20797  0.49950  0.22668  Biso   1.000  Ir
  Ir15     1.0000 0.70797  0.00050  0.27332  Biso   1.000  Ir
  Ir16     1.0000 0.29203  0.99950  0.27332  Biso   1.000  Ir
  Ir17     1.0000 0.00000  0.00000  0.84761  Biso   1.000  Ir
  Ir18     1.0000 0.50000  0.50000  0.65239  Biso   1.000  Ir
  Ir19     1.0000 0.00000  0.00000  0.15239  Biso   1.000  Ir
  Ir20     1.0000 0.50000  0.50000  0.34761  Biso   1.000  Ir
  Ir21     1.0000 0.51128  0.29943  0.58310  Biso   1.000  Ir
  Ir22     1.0000 0.48872  0.70056  0.58310  Biso   1.000  Ir
  Ir23     1.0000 0.98872  0.79944  0.91690  Biso   1.000  Ir
  Ir24     1.0000 0.01128  0.20056  0.91690  Biso   1.000  Ir
  Ir25     1.0000 0.48872  0.70056  0.41690  Biso   1.000  Ir
  Ir26     1.0000 0.51128  0.29943  0.41690  Biso   1.000  Ir
  Ir27     1.0000 0.01128  0.20056  0.08310  Biso   1.000  Ir
  Ir28     1.0000 0.98872  0.79944  0.08310  Biso   1.000  Ir
  Ir29     1.0000 0.19042  0.79229  0.31732  Biso   1.000  Ir
  Ir30     1.0000 0.80958  0.20771  0.31732  Biso   1.000  Ir
  Ir31     1.0000 0.30958  0.29229  0.18268  Biso   1.000  Ir
  Ir32     1.0000 0.69042  0.70771  0.18268  Biso   1.000  Ir
  Ir33     1.0000 0.80958  0.20771  0.68268  Biso   1.000  Ir
  Ir34     1.0000 0.19042  0.79229  0.68268  Biso   1.000  Ir
  Ir35     1.0000 0.69042  0.70771  0.81732  Biso   1.000  Ir
  Ir36     1.0000 0.30958  0.29229  0.81732  Biso   1.000  Ir
