data_image0
_cell_length_a       4.81824
_cell_length_b       4.02481
_cell_length_c       12.0406
_cell_angle_alpha    90
_cell_angle_beta     90.7497
_cell_angle_gamma    90

_symmetry_space_group_name_H-M    "P 1"
_symmetry_int_tables_number       1

loop_
  _symmetry_equiv_pos_as_xyz
  'x, y, z'

loop_
  _atom_site_label
  _atom_site_occupancy
  _atom_site_fract_x
  _atom_site_fract_y
  _atom_site_fract_z
  _atom_site_thermal_displace_type
  _atom_site_B_iso_or_equiv
  _atom_site_type_symbol
  Ir1      1.0000 0.90872  0.00000  0.00342  Biso   1.000  Ir
  Ir2      1.0000 0.90737  0.00000  0.66297  Biso   1.000  Ir
  Ir3      1.0000 0.92623  0.50000  0.16263  Biso   1.000  Ir
  Ir4      1.0000 0.92520  0.50000  0.50368  Biso   1.000  Ir
  O1       1.0000 0.42581  0.00000  0.16326  Biso   1.000  O
  O2       1.0000 0.08499  0.00000  0.33374  Biso   1.000  O
  O3       1.0000 0.42882  0.00000  0.50412  Biso   1.000  O
  O4       1.0000 0.39646  0.00000  0.83247  Biso   1.000  O
  O5       1.0000 0.40455  0.50000  0.00367  Biso   1.000  O
  O6       1.0000 0.43701  0.50000  0.33271  Biso   1.000  O
  O7       1.0000 0.40715  0.50000  0.66359  Biso   1.000  O
  O8       1.0000 0.74763  0.50000  0.83374  Biso   1.000  O
