data_image0
_cell_length_a       4.88305
_cell_length_b       4.88305
_cell_length_c       40.7512
_cell_angle_alpha    90
_cell_angle_beta     90
_cell_angle_gamma    60

loop_
  _atom_site_label
  _atom_site_occupancy
  _atom_site_fract_x
  _atom_site_fract_y
  _atom_site_fract_z
  _atom_site_thermal_displace_type
  _atom_site_B_iso_or_equiv
  _atom_site_type_symbol
  O1       1.0000 0.66667  0.01236  0.19631  Biso   1.000  O
  O2       1.0000 0.01236  0.32098  0.19631  Biso   1.000  O
  O3       1.0000 0.32098  0.66667  0.19631  Biso   1.000  O
  Ir1      1.0000 0.33333  0.33333  0.22272  Biso   1.000  Ir
  O4       1.0000 0.34571  1.00000  0.24913  Biso   1.000  O
  O5       1.0000 0.65429  0.34571  0.24913  Biso   1.000  O
  O6       1.0000 0.00000  0.65429  0.24913  Biso   1.000  O
  Ir2      1.0000 0.66667  0.66667  0.27554  Biso   1.000  Ir
  O7       1.0000 0.98764  0.33333  0.30194  Biso   1.000  O
  O8       1.0000 0.33333  0.67902  0.30194  Biso   1.000  O
  O9       1.0000 0.67902  0.98764  0.30194  Biso   1.000  O
  Ir3      1.0000 0.00000  1.00000  0.32835  Biso   1.000  Ir
  O10      1.0000 0.32096  0.01238  0.35476  Biso   1.000  O
  O11      1.0000 0.66667  0.32096  0.35476  Biso   1.000  O
  O12      1.0000 0.01238  0.66667  0.35476  Biso   1.000  O
  Ir4      1.0000 0.33333  0.33333  0.38117  Biso   1.000  Ir
  O13      1.0000 0.65431  1.00000  0.40757  Biso   1.000  O
  O14      1.0000 0.00000  0.34569  0.40757  Biso   1.000  O
  O15      1.0000 0.34569  0.65431  0.40757  Biso   1.000  O
  Ir5      1.0000 0.66667  0.66667  0.43398  Biso   1.000  Ir
  O16      1.0000 0.67904  0.33333  0.46039  Biso   1.000  O
  O17      1.0000 0.98762  0.67904  0.46039  Biso   1.000  O
  O18      1.0000 0.33333  0.98762  0.46039  Biso   1.000  O
  Ir6      1.0000 0.00000  1.00000  0.48680  Biso   1.000  Ir
  O19      1.0000 0.66667  0.01236  0.51320  Biso   1.000  O
  O20      1.0000 0.01236  0.32098  0.51320  Biso   1.000  O
  O21      1.0000 0.32098  0.66667  0.51320  Biso   1.000  O
  Ir7      1.0000 0.33333  0.33333  0.53961  Biso   1.000  Ir
  O22      1.0000 0.34571  1.00000  0.56602  Biso   1.000  O
  O23      1.0000 0.65429  0.34571  0.56602  Biso   1.000  O
  O24      1.0000 0.00000  0.65429  0.56602  Biso   1.000  O
  Ir8      1.0000 0.66667  0.66667  0.59243  Biso   1.000  Ir
  O25      1.0000 0.98764  0.33333  0.61883  Biso   1.000  O
  O26      1.0000 0.33333  0.67902  0.61883  Biso   1.000  O
  O27      1.0000 0.67902  0.98764  0.61883  Biso   1.000  O
  Ir9      1.0000 0.00000  0.00000  0.64524  Biso   1.000  Ir
  O28      1.0000 0.32096  0.01238  0.67165  Biso   1.000  O
  O29      1.0000 0.66667  0.32096  0.67165  Biso   1.000  O
  O30      1.0000 0.01238  0.66667  0.67165  Biso   1.000  O
  Ir10     1.0000 0.33333  0.33333  0.69806  Biso   1.000  Ir
  O31      1.0000 0.65431  0.00000  0.72446  Biso   1.000  O
  O32      1.0000 1.00000  0.34569  0.72446  Biso   1.000  O
  O33      1.0000 0.34569  0.65431  0.72446  Biso   1.000  O
  Ir11     1.0000 0.66667  0.66667  0.75087  Biso   1.000  Ir
  O34      1.0000 0.67904  0.33333  0.77728  Biso   1.000  O
  O35      1.0000 0.98762  0.67904  0.77728  Biso   1.000  O
  O36      1.0000 0.33333  0.98762  0.77728  Biso   1.000  O
  Ir12     1.0000 0.00000  0.00000  0.80369  Biso   1.000  Ir
