data_image0
_cell_length_a       4.69635
_cell_length_b       4.69635
_cell_length_c       40.6412
_cell_angle_alpha    90
_cell_angle_beta     90
_cell_angle_gamma    89.9999

loop_
  _atom_site_label
  _atom_site_occupancy
  _atom_site_fract_x
  _atom_site_fract_y
  _atom_site_fract_z
  _atom_site_thermal_displace_type
  _atom_site_B_iso_or_equiv
  _atom_site_type_symbol
  O1       1.0000 0.53204  0.10726  0.19684  Biso   1.000  O
  O2       1.0000 0.89273  0.46795  0.19684  Biso   1.000  O
  O3       1.0000 0.00000  0.00000  0.23446  Biso   1.000  O
  O4       1.0000 0.42478  0.57522  0.23446  Biso   1.000  O
  Ir1      1.0000 0.71239  0.28761  0.23448  Biso   1.000  Ir
  Ir2      1.0000 0.21239  0.78761  0.26653  Biso   1.000  Ir
  O5       1.0000 0.49999  0.07521  0.26655  Biso   1.000  O
  O6       1.0000 0.92478  0.50000  0.26655  Biso   1.000  O
  O7       1.0000 0.39274  0.60726  0.30417  Biso   1.000  O
  O8       1.0000 0.03204  0.96796  0.30417  Biso   1.000  O
  O9       1.0000 0.49999  0.07521  0.34178  Biso   1.000  O
  O10      1.0000 0.92478  0.50000  0.34178  Biso   1.000  O
  Ir3      1.0000 0.21239  0.78761  0.34180  Biso   1.000  Ir
  Ir4      1.0000 0.71239  0.28761  0.37385  Biso   1.000  Ir
  O11      1.0000 0.00000  0.00000  0.37387  Biso   1.000  O
  O12      1.0000 0.42478  0.57522  0.37387  Biso   1.000  O
  O13      1.0000 0.53204  0.10726  0.41149  Biso   1.000  O
  O14      1.0000 0.89273  0.46795  0.41149  Biso   1.000  O
  O15      1.0000 0.00000  0.00000  0.44911  Biso   1.000  O
  O16      1.0000 0.42478  0.57522  0.44911  Biso   1.000  O
  Ir5      1.0000 0.71239  0.28761  0.44912  Biso   1.000  Ir
  Ir6      1.0000 0.21239  0.78761  0.48117  Biso   1.000  Ir
  O17      1.0000 0.49999  0.07521  0.48119  Biso   1.000  O
  O18      1.0000 0.92478  0.50000  0.48119  Biso   1.000  O
  O19      1.0000 0.39274  0.60726  0.51881  Biso   1.000  O
  O20      1.0000 0.03204  0.96796  0.51881  Biso   1.000  O
  O21      1.0000 0.49999  0.07521  0.55643  Biso   1.000  O
  O22      1.0000 0.92478  0.50000  0.55643  Biso   1.000  O
  Ir7      1.0000 0.21239  0.78761  0.55645  Biso   1.000  Ir
  Ir8      1.0000 0.71239  0.28761  0.58850  Biso   1.000  Ir
  O23      1.0000 0.00000  0.00000  0.58851  Biso   1.000  O
  O24      1.0000 0.42478  0.57522  0.58851  Biso   1.000  O
  O25      1.0000 0.53204  0.10726  0.62613  Biso   1.000  O
  O26      1.0000 0.89273  0.46795  0.62613  Biso   1.000  O
  O27      1.0000 0.00000  0.00000  0.66375  Biso   1.000  O
  O28      1.0000 0.42478  0.57522  0.66375  Biso   1.000  O
  Ir9      1.0000 0.71239  0.28761  0.66377  Biso   1.000  Ir
  Ir10     1.0000 0.21239  0.78761  0.69582  Biso   1.000  Ir
  O29      1.0000 0.49999  0.07521  0.69583  Biso   1.000  O
  O30      1.0000 0.92478  0.50000  0.69583  Biso   1.000  O
  O31      1.0000 0.39274  0.60726  0.73345  Biso   1.000  O
  O32      1.0000 0.03204  0.96796  0.73345  Biso   1.000  O
  O33      1.0000 0.49999  0.07521  0.77107  Biso   1.000  O
  O34      1.0000 0.92478  0.50000  0.77107  Biso   1.000  O
  Ir11     1.0000 0.21239  0.78761  0.77109  Biso   1.000  Ir
  Ir12     1.0000 0.71239  0.28761  0.80314  Biso   1.000  Ir
  O35      1.0000 0.00000  0.00000  0.80316  Biso   1.000  O
  O36      1.0000 0.42478  0.57522  0.80316  Biso   1.000  O
