data_image0
_cell_length_a       4.69635
_cell_length_b       4.69635
_cell_length_c       40.6412
_cell_angle_alpha    90
_cell_angle_beta     90
_cell_angle_gamma    89.9999

_symmetry_space_group_name_H-M    "P 1"
_symmetry_int_tables_number       1

loop_
  _symmetry_equiv_pos_as_xyz
  'x, y, z'

loop_
  _atom_site_label
  _atom_site_occupancy
  _atom_site_fract_x
  _atom_site_fract_y
  _atom_site_fract_z
  _atom_site_thermal_displace_type
  _atom_site_B_iso_or_equiv
  _atom_site_type_symbol
  O1       1.0000 0.53204  0.10726  0.19684  Biso   1.000  O
  O2       1.0000 0.89273  0.46795  0.19684  Biso   1.000  O
  O3       1.0000 0.00000  0.00000  0.23446  Biso   1.000  O
  O4       1.0000 0.42478  0.57522  0.23446  Biso   1.000  O
  Ir1      1.0000 0.71239  0.28761  0.23448  Biso   1.000  Ir
  Ir2      1.0000 0.21239  0.78761  0.26653  Biso   1.000  Ir
  O5       1.0000 0.49999  0.07521  0.26655  Biso   1.000  O
  O6       1.0000 0.92478  0.50000  0.26655  Biso   1.000  O
  O7       1.0000 0.39274  0.60726  0.30417  Biso   1.000  O
  O8       1.0000 0.03204  0.96796  0.30417  Biso   1.000  O
  O9       1.0000 0.49999  0.07521  0.34178  Biso   1.000  O
  O10      1.0000 0.92478  0.50000  0.34178  Biso   1.000  O
  Ir3      1.0000 0.21239  0.78761  0.34180  Biso   1.000  Ir
  Ir4      1.0000 0.71239  0.28761  0.37385  Biso   1.000  Ir
  O11      1.0000 0.00000  0.00000  0.37387  Biso   1.000  O
  O12      1.0000 0.42478  0.57522  0.37387  Biso   1.000  O
  O13      1.0000 0.53204  0.10726  0.41149  Biso   1.000  O
  O14      1.0000 0.89273  0.46795  0.41149  Biso   1.000  O
  O15      1.0000 0.00000  0.00000  0.44911  Biso   1.000  O
  O16      1.0000 0.42478  0.57522  0.44911  Biso   1.000  O
  Ir5      1.0000 0.71239  0.28761  0.44912  Biso   1.000  Ir
  Ir6      1.0000 0.21239  0.78761  0.48117  Biso   1.000  Ir
  O17      1.0000 0.49999  0.07521  0.48119  Biso   1.000  O
  O18      1.0000 0.92478  0.50000  0.48119  Biso   1.000  O
  O19      1.0000 0.39274  0.60726  0.51881  Biso   1.000  O
  O20      1.0000 0.03204  0.96796  0.51881  Biso   1.000  O
  O21      1.0000 0.49999  0.07521  0.55643  Biso   1.000  O
  O22      1.0000 0.92478  0.50000  0.55643  Biso   1.000  O
  Ir7      1.0000 0.21239  0.78761  0.55645  Biso   1.000  Ir
  Ir8      1.0000 0.71239  0.28761  0.58850  Biso   1.000  Ir
  O23      1.0000 0.00000  0.00000  0.58851  Biso   1.000  O
  O24      1.0000 0.42478  0.57522  0.58851  Biso   1.000  O
  O25      1.0000 0.53204  0.10726  0.62613  Biso   1.000  O
  O26      1.0000 0.89273  0.46795  0.62613  Biso   1.000  O
  O27      1.0000 0.00000  0.00000  0.66375  Biso   1.000  O
  O28      1.0000 0.42478  0.57522  0.66375  Biso   1.000  O
  Ir9      1.0000 0.71239  0.28761  0.66377  Biso   1.000  Ir
  Ir10     1.0000 0.21239  0.78761  0.69582  Biso   1.000  Ir
  O29      1.0000 0.49999  0.07521  0.69583  Biso   1.000  O
  O30      1.0000 0.92478  0.50000  0.69583  Biso   1.000  O
  O31      1.0000 0.39274  0.60726  0.73345  Biso   1.000  O
  O32      1.0000 0.03204  0.96796  0.73345  Biso   1.000  O
  O33      1.0000 0.49999  0.07521  0.77107  Biso   1.000  O
  O34      1.0000 0.92478  0.50000  0.77107  Biso   1.000  O
  Ir11     1.0000 0.21239  0.78761  0.77109  Biso   1.000  Ir
  Ir12     1.0000 0.71239  0.28761  0.80314  Biso   1.000  Ir
  O35      1.0000 0.00000  0.00000  0.80316  Biso   1.000  O
  O36      1.0000 0.42478  0.57522  0.80316  Biso   1.000  O
  O37      1.0000 0.53204  0.10726  0.19684  Biso   1.000  O
  O38      1.0000 0.89273  0.46795  0.19684  Biso   1.000  O
  O39      1.0000 0.00000  0.00000  0.23446  Biso   1.000  O
  O40      1.0000 0.42478  0.57522  0.23446  Biso   1.000  O
  Ir13     1.0000 0.71239  0.28761  0.23448  Biso   1.000  Ir
  Ir14     1.0000 0.21239  0.78761  0.26653  Biso   1.000  Ir
  O41      1.0000 0.49999  0.07521  0.26655  Biso   1.000  O
  O42      1.0000 0.92478  0.50000  0.26655  Biso   1.000  O
  O43      1.0000 0.39274  0.60726  0.30417  Biso   1.000  O
  O44      1.0000 0.03204  0.96796  0.30417  Biso   1.000  O
  O45      1.0000 0.49999  0.07521  0.34178  Biso   1.000  O
  O46      1.0000 0.92478  0.50000  0.34178  Biso   1.000  O
  Ir15     1.0000 0.21239  0.78761  0.34180  Biso   1.000  Ir
  Ir16     1.0000 0.71239  0.28761  0.37385  Biso   1.000  Ir
  O47      1.0000 0.00000  0.00000  0.37387  Biso   1.000  O
  O48      1.0000 0.42478  0.57522  0.37387  Biso   1.000  O
  O49      1.0000 0.53204  0.10726  0.41149  Biso   1.000  O
  O50      1.0000 0.89273  0.46795  0.41149  Biso   1.000  O
  O51      1.0000 0.00000  0.00000  0.44911  Biso   1.000  O
  O52      1.0000 0.42478  0.57522  0.44911  Biso   1.000  O
  Ir17     1.0000 0.71239  0.28761  0.44912  Biso   1.000  Ir
  Ir18     1.0000 0.21239  0.78761  0.48117  Biso   1.000  Ir
  O53      1.0000 0.49999  0.07521  0.48119  Biso   1.000  O
  O54      1.0000 0.92478  0.50000  0.48119  Biso   1.000  O
  O55      1.0000 0.39274  0.60726  0.51881  Biso   1.000  O
  O56      1.0000 0.03204  0.96796  0.51881  Biso   1.000  O
  O57      1.0000 0.49999  0.07521  0.55643  Biso   1.000  O
  O58      1.0000 0.92478  0.50000  0.55643  Biso   1.000  O
  Ir19     1.0000 0.21239  0.78761  0.55645  Biso   1.000  Ir
  Ir20     1.0000 0.71239  0.28761  0.58850  Biso   1.000  Ir
  O59      1.0000 0.00000  0.00000  0.58851  Biso   1.000  O
  O60      1.0000 0.42478  0.57522  0.58851  Biso   1.000  O
  O61      1.0000 0.53204  0.10726  0.62613  Biso   1.000  O
  O62      1.0000 0.89273  0.46795  0.62613  Biso   1.000  O
  O63      1.0000 0.00000  0.00000  0.66375  Biso   1.000  O
  O64      1.0000 0.42478  0.57522  0.66375  Biso   1.000  O
  Ir21     1.0000 0.71239  0.28761  0.66377  Biso   1.000  Ir
  Ir22     1.0000 0.21239  0.78761  0.69582  Biso   1.000  Ir
  O65      1.0000 0.49999  0.07521  0.69583  Biso   1.000  O
  O66      1.0000 0.92478  0.50000  0.69583  Biso   1.000  O
  O67      1.0000 0.39274  0.60726  0.73345  Biso   1.000  O
  O68      1.0000 0.03204  0.96796  0.73345  Biso   1.000  O
  O69      1.0000 0.49999  0.07521  0.77107  Biso   1.000  O
  O70      1.0000 0.92478  0.50000  0.77107  Biso   1.000  O
  Ir23     1.0000 0.21239  0.78761  0.77109  Biso   1.000  Ir
  Ir24     1.0000 0.71239  0.28761  0.80314  Biso   1.000  Ir
  O71      1.0000 0.00000  0.00000  0.80316  Biso   1.000  O
  O72      1.0000 0.42478  0.57522  0.80316  Biso   1.000  O
  O73      1.0000 0.53204  0.10726  0.19684  Biso   1.000  O
  O74      1.0000 0.89273  0.46795  0.19684  Biso   1.000  O
  O75      1.0000 0.00000  0.00000  0.23446  Biso   1.000  O
  O76      1.0000 0.42478  0.57522  0.23446  Biso   1.000  O
  Ir25     1.0000 0.71239  0.28761  0.23448  Biso   1.000  Ir
  Ir26     1.0000 0.21239  0.78761  0.26653  Biso   1.000  Ir
  O77      1.0000 0.49999  0.07521  0.26655  Biso   1.000  O
  O78      1.0000 0.92478  0.50000  0.26655  Biso   1.000  O
  O79      1.0000 0.39274  0.60726  0.30417  Biso   1.000  O
  O80      1.0000 0.03204  0.96796  0.30417  Biso   1.000  O
  O81      1.0000 0.49999  0.07521  0.34178  Biso   1.000  O
  O82      1.0000 0.92478  0.50000  0.34178  Biso   1.000  O
  Ir27     1.0000 0.21239  0.78761  0.34180  Biso   1.000  Ir
  Ir28     1.0000 0.71239  0.28761  0.37385  Biso   1.000  Ir
  O83      1.0000 0.00000  0.00000  0.37387  Biso   1.000  O
  O84      1.0000 0.42478  0.57522  0.37387  Biso   1.000  O
  O85      1.0000 0.53204  0.10726  0.41149  Biso   1.000  O
  O86      1.0000 0.89273  0.46795  0.41149  Biso   1.000  O
  O87      1.0000 0.00000  0.00000  0.44911  Biso   1.000  O
  O88      1.0000 0.42478  0.57522  0.44911  Biso   1.000  O
  Ir29     1.0000 0.71239  0.28761  0.44912  Biso   1.000  Ir
  Ir30     1.0000 0.21239  0.78761  0.48117  Biso   1.000  Ir
  O89      1.0000 0.49999  0.07521  0.48119  Biso   1.000  O
  O90      1.0000 0.92478  0.50000  0.48119  Biso   1.000  O
  O91      1.0000 0.39274  0.60726  0.51881  Biso   1.000  O
  O92      1.0000 0.03204  0.96796  0.51881  Biso   1.000  O
  O93      1.0000 0.49999  0.07521  0.55643  Biso   1.000  O
  O94      1.0000 0.92478  0.50000  0.55643  Biso   1.000  O
  Ir31     1.0000 0.21239  0.78761  0.55645  Biso   1.000  Ir
  Ir32     1.0000 0.71239  0.28761  0.58850  Biso   1.000  Ir
  O95      1.0000 0.00000  0.00000  0.58851  Biso   1.000  O
  O96      1.0000 0.42478  0.57522  0.58851  Biso   1.000  O
  O97      1.0000 0.53204  0.10726  0.62613  Biso   1.000  O
  O98      1.0000 0.89273  0.46795  0.62613  Biso   1.000  O
  O99      1.0000 0.00000  0.00000  0.66375  Biso   1.000  O
  O100     1.0000 0.42478  0.57522  0.66375  Biso   1.000  O
  Ir33     1.0000 0.71239  0.28761  0.66377  Biso   1.000  Ir
  Ir34     1.0000 0.21239  0.78761  0.69582  Biso   1.000  Ir
  O101     1.0000 0.49999  0.07521  0.69583  Biso   1.000  O
  O102     1.0000 0.92478  0.50000  0.69583  Biso   1.000  O
  O103     1.0000 0.39274  0.60726  0.73345  Biso   1.000  O
  O104     1.0000 0.03204  0.96796  0.73345  Biso   1.000  O
  O105     1.0000 0.49999  0.07521  0.77107  Biso   1.000  O
  O106     1.0000 0.92478  0.50000  0.77107  Biso   1.000  O
  Ir35     1.0000 0.21239  0.78761  0.77109  Biso   1.000  Ir
  Ir36     1.0000 0.71239  0.28761  0.80314  Biso   1.000  Ir
  O107     1.0000 0.00000  0.00000  0.80316  Biso   1.000  O
  O108     1.0000 0.42478  0.57522  0.80316  Biso   1.000  O
  O109     1.0000 0.53204  0.10726  0.19684  Biso   1.000  O
  O110     1.0000 0.89273  0.46795  0.19684  Biso   1.000  O
  O111     1.0000 0.00000  0.00000  0.23446  Biso   1.000  O
  O112     1.0000 0.42478  0.57522  0.23446  Biso   1.000  O
  Ir37     1.0000 0.71239  0.28761  0.23448  Biso   1.000  Ir
  Ir38     1.0000 0.21239  0.78761  0.26653  Biso   1.000  Ir
  O113     1.0000 0.49999  0.07521  0.26655  Biso   1.000  O
  O114     1.0000 0.92478  0.50000  0.26655  Biso   1.000  O
  O115     1.0000 0.39274  0.60726  0.30417  Biso   1.000  O
  O116     1.0000 0.03204  0.96796  0.30417  Biso   1.000  O
  O117     1.0000 0.49999  0.07521  0.34178  Biso   1.000  O
  O118     1.0000 0.92478  0.50000  0.34178  Biso   1.000  O
  Ir39     1.0000 0.21239  0.78761  0.34180  Biso   1.000  Ir
  Ir40     1.0000 0.71239  0.28761  0.37385  Biso   1.000  Ir
  O119     1.0000 0.00000  0.00000  0.37387  Biso   1.000  O
  O120     1.0000 0.42478  0.57522  0.37387  Biso   1.000  O
  O121     1.0000 0.53204  0.10726  0.41149  Biso   1.000  O
  O122     1.0000 0.89273  0.46795  0.41149  Biso   1.000  O
  O123     1.0000 0.00000  0.00000  0.44911  Biso   1.000  O
  O124     1.0000 0.42478  0.57522  0.44911  Biso   1.000  O
  Ir41     1.0000 0.71239  0.28761  0.44912  Biso   1.000  Ir
  Ir42     1.0000 0.21239  0.78761  0.48117  Biso   1.000  Ir
  O125     1.0000 0.49999  0.07521  0.48119  Biso   1.000  O
  O126     1.0000 0.92478  0.50000  0.48119  Biso   1.000  O
  O127     1.0000 0.39274  0.60726  0.51881  Biso   1.000  O
  O128     1.0000 0.03204  0.96796  0.51881  Biso   1.000  O
  O129     1.0000 0.49999  0.07521  0.55643  Biso   1.000  O
  O130     1.0000 0.92478  0.50000  0.55643  Biso   1.000  O
  Ir43     1.0000 0.21239  0.78761  0.55645  Biso   1.000  Ir
  Ir44     1.0000 0.71239  0.28761  0.58850  Biso   1.000  Ir
  O131     1.0000 0.00000  0.00000  0.58851  Biso   1.000  O
  O132     1.0000 0.42478  0.57522  0.58851  Biso   1.000  O
  O133     1.0000 0.53204  0.10726  0.62613  Biso   1.000  O
  O134     1.0000 0.89273  0.46795  0.62613  Biso   1.000  O
  O135     1.0000 0.00000  0.00000  0.66375  Biso   1.000  O
  O136     1.0000 0.42478  0.57522  0.66375  Biso   1.000  O
  Ir45     1.0000 0.71239  0.28761  0.66377  Biso   1.000  Ir
  Ir46     1.0000 0.21239  0.78761  0.69582  Biso   1.000  Ir
  O137     1.0000 0.49999  0.07521  0.69583  Biso   1.000  O
  O138     1.0000 0.92478  0.50000  0.69583  Biso   1.000  O
  O139     1.0000 0.39274  0.60726  0.73345  Biso   1.000  O
  O140     1.0000 0.03204  0.96796  0.73345  Biso   1.000  O
  O141     1.0000 0.49999  0.07521  0.77107  Biso   1.000  O
  O142     1.0000 0.92478  0.50000  0.77107  Biso   1.000  O
  Ir47     1.0000 0.21239  0.78761  0.77109  Biso   1.000  Ir
  Ir48     1.0000 0.71239  0.28761  0.80314  Biso   1.000  Ir
  O143     1.0000 0.00000  0.00000  0.80316  Biso   1.000  O
  O144     1.0000 0.42478  0.57522  0.80316  Biso   1.000  O
