data_image0
_cell_length_a       8.61194
_cell_length_b       5.1456
_cell_length_c       27.6767
_cell_angle_alpha    90
_cell_angle_beta     90
_cell_angle_gamma    93.4064

_symmetry_space_group_name_H-M    "P 1"
_symmetry_int_tables_number       1

loop_
  _symmetry_equiv_pos_as_xyz
  'x, y, z'

loop_
  _atom_site_label
  _atom_site_occupancy
  _atom_site_fract_x
  _atom_site_fract_y
  _atom_site_fract_z
  _atom_site_thermal_displace_type
  _atom_site_B_iso_or_equiv
  _atom_site_type_symbol
  O1       1.0000 0.61912  0.78483  0.27099  Biso   1.000  O
  O2       1.0000 0.11912  0.28484  0.27099  Biso   1.000  O
  O3       1.0000 0.56935  0.27989  0.29339  Biso   1.000  O
  O4       1.0000 0.06935  0.77990  0.29339  Biso   1.000  O
  O5       1.0000 0.85329  0.11945  0.32119  Biso   1.000  O
  O6       1.0000 0.35329  0.61946  0.32119  Biso   1.000  O
  O7       1.0000 0.30350  0.11449  0.34360  Biso   1.000  O
  O8       1.0000 0.80350  0.61450  0.34360  Biso   1.000  O
  O9       1.0000 0.58087  0.93669  0.36600  Biso   1.000  O
  O10      1.0000 0.08088  0.43670  0.36600  Biso   1.000  O
  O11      1.0000 0.51913  0.43056  0.39379  Biso   1.000  O
  O12      1.0000 0.01914  0.93057  0.39379  Biso   1.000  O
  O13      1.0000 0.29648  0.75275  0.41619  Biso   1.000  O
  O14      1.0000 0.79648  0.25276  0.41619  Biso   1.000  O
  O15      1.0000 0.74670  0.74781  0.43860  Biso   1.000  O
  O16      1.0000 0.24670  0.24780  0.43860  Biso   1.000  O
  O17      1.0000 0.53065  0.08737  0.46640  Biso   1.000  O
  O18      1.0000 0.03065  0.58738  0.46640  Biso   1.000  O
  O19      1.0000 0.48087  0.58241  0.48880  Biso   1.000  O
  O20      1.0000 0.98087  0.08240  0.48880  Biso   1.000  O
  O21      1.0000 0.25877  0.90345  0.51107  Biso   1.000  O
  O22      1.0000 0.75877  0.40346  0.51106  Biso   1.000  O
  O23      1.0000 0.69627  0.90261  0.54000  Biso   1.000  O
  O24      1.0000 0.19625  0.40264  0.54000  Biso   1.000  O
  O25      1.0000 0.47103  0.22059  0.56121  Biso   1.000  O
  O26      1.0000 0.97104  0.72081  0.56119  Biso   1.000  O
  O27      1.0000 0.42331  0.71371  0.58342  Biso   1.000  O
  O28      1.0000 0.92326  0.21398  0.58345  Biso   1.000  O
  O29      1.0000 0.20716  0.06096  0.61194  Biso   1.000  O
  O30      1.0000 0.70719  0.56102  0.61193  Biso   1.000  O
  O31      1.0000 0.65946  0.06223  0.63383  Biso   1.000  O
  O32      1.0000 0.15948  0.56215  0.63384  Biso   1.000  O
  O33      1.0000 0.44155  0.37152  0.65489  Biso   1.000  O
  O34      1.0000 0.94156  0.87146  0.65489  Biso   1.000  O
  O35      1.0000 0.36182  0.84328  0.68422  Biso   1.000  O
  O36      1.0000 0.86180  0.34336  0.68421  Biso   1.000  O
  O37      1.0000 0.65293  0.68875  0.70276  Biso   1.000  O
  O38      1.0000 0.15292  0.18855  0.70277  Biso   1.000  O
  O39      1.0000 0.58853  0.18014  0.72793  Biso   1.000  O
  O40      1.0000 0.08861  0.67997  0.72794  Biso   1.000  O
  Ir1      1.0000 0.46131  0.94967  0.30728  Biso   1.000  Ir
  Ir2      1.0000 0.96133  0.44968  0.30728  Biso   1.000  Ir
  Ir3      1.0000 0.80001  0.93362  0.37989  Biso   1.000  Ir
  Ir4      1.0000 0.30001  0.43363  0.37989  Biso   1.000  Ir
  Ir5      1.0000 0.13868  0.91758  0.45249  Biso   1.000  Ir
  Ir6      1.0000 0.63868  0.41759  0.45249  Biso   1.000  Ir
  Ir7      1.0000 0.47770  0.90290  0.52559  Biso   1.000  Ir
  Ir8      1.0000 0.97768  0.40298  0.52560  Biso   1.000  Ir
  Ir9      1.0000 0.81460  0.88543  0.59905  Biso   1.000  Ir
  Ir10     1.0000 0.31459  0.38532  0.59904  Biso   1.000  Ir
  Ir11     1.0000 0.15994  0.87115  0.67914  Biso   1.000  Ir
  Ir12     1.0000 0.65992  0.37131  0.67914  Biso   1.000  Ir
