data_image0
_cell_length_a       6.64164
_cell_length_b       8.72335
_cell_length_c       28.2831
_cell_angle_alpha    90
_cell_angle_beta     90
_cell_angle_gamma    90

_symmetry_space_group_name_H-M    "P 1"
_symmetry_int_tables_number       1

loop_
  _symmetry_equiv_pos_as_xyz
  'x, y, z'

loop_
  _atom_site_label
  _atom_site_occupancy
  _atom_site_fract_x
  _atom_site_fract_y
  _atom_site_fract_z
  _atom_site_thermal_displace_type
  _atom_site_B_iso_or_equiv
  _atom_site_type_symbol
  O1       1.0000 0.50000  0.32474  0.26518  Biso   1.000  O
  O2       1.0000 0.50000  0.67526  0.26518  Biso   1.000  O
  O3       1.0000 0.50000  0.00000  0.27269  Biso   1.000  O
  O4       1.0000 0.21239  0.17526  0.31505  Biso   1.000  O
  O5       1.0000 0.78761  0.17526  0.31505  Biso   1.000  O
  O6       1.0000 0.18035  0.50000  0.31505  Biso   1.000  O
  O7       1.0000 0.81965  0.50000  0.31505  Biso   1.000  O
  O8       1.0000 0.21239  0.82474  0.31505  Biso   1.000  O
  O9       1.0000 0.78761  0.82474  0.31505  Biso   1.000  O
  O10      1.0000 0.50000  0.00000  0.35740  Biso   1.000  O
  O11      1.0000 0.50000  0.32474  0.36493  Biso   1.000  O
  O12      1.0000 0.50000  0.67526  0.36493  Biso   1.000  O
  O13      1.0000 0.00000  0.32474  0.38258  Biso   1.000  O
  O14      1.0000 0.00000  0.67526  0.38258  Biso   1.000  O
  O15      1.0000 0.00000  0.00000  0.39012  Biso   1.000  O
  O16      1.0000 0.28761  0.17526  0.43246  Biso   1.000  O
  O17      1.0000 0.71239  0.17526  0.43246  Biso   1.000  O
  O18      1.0000 0.28761  0.82474  0.43246  Biso   1.000  O
  O19      1.0000 0.31965  0.50000  0.43246  Biso   1.000  O
  O20      1.0000 0.68035  0.50000  0.43246  Biso   1.000  O
  O21      1.0000 0.71239  0.82474  0.43246  Biso   1.000  O
  O22      1.0000 0.00000  0.00000  0.47481  Biso   1.000  O
  O23      1.0000 0.00000  0.32474  0.48234  Biso   1.000  O
  O24      1.0000 0.00000  0.67526  0.48234  Biso   1.000  O
  O25      1.0000 0.50000  0.32474  0.49999  Biso   1.000  O
  O26      1.0000 0.50000  0.67526  0.49999  Biso   1.000  O
  O27      1.0000 0.50000  0.00000  0.50753  Biso   1.000  O
  O28      1.0000 0.21283  0.17451  0.55047  Biso   1.000  O
  O29      1.0000 0.78710  0.17458  0.55047  Biso   1.000  O
  O30      1.0000 0.17969  0.50084  0.55078  Biso   1.000  O
  O31      1.0000 0.82067  0.50085  0.55092  Biso   1.000  O
  O32      1.0000 0.78776  0.82574  0.54981  Biso   1.000  O
  O33      1.0000 0.21238  0.82599  0.54950  Biso   1.000  O
  O34      1.0000 0.49998  0.00050  0.59227  Biso   1.000  O
  O35      1.0000 0.50003  0.34441  0.59401  Biso   1.000  O
  O36      1.0000 0.49909  0.68544  0.60266  Biso   1.000  O
  O37      1.0000 0.00019  0.32349  0.61874  Biso   1.000  O
  O38      1.0000 0.00134  0.68551  0.61816  Biso   1.000  O
  O39      1.0000 0.00123  0.01119  0.62818  Biso   1.000  O
  O40      1.0000 0.29867  0.18463  0.67059  Biso   1.000  O
  O41      1.0000 0.70321  0.18470  0.67092  Biso   1.000  O
  O42      1.0000 0.32332  0.50393  0.66945  Biso   1.000  O
  O43      1.0000 0.67992  0.50351  0.66903  Biso   1.000  O
  O44      1.0000 0.29285  0.83650  0.66788  Biso   1.000  O
  O45      1.0000 0.70857  0.83740  0.66689  Biso   1.000  O
  O46      1.0000 0.00032  0.00700  0.71214  Biso   1.000  O
  O47      1.0000 0.00183  0.30919  0.72186  Biso   1.000  O
  O48      1.0000 0.99795  0.70104  0.71755  Biso   1.000  O
  O49      1.0000 0.50544  0.68976  0.73513  Biso   1.000  O
  Ir1      1.0000 0.50000  0.17534  0.31505  Biso   1.000  Ir
  Ir2      1.0000 0.00000  0.32465  0.31505  Biso   1.000  Ir
  Ir3      1.0000 0.00000  0.67534  0.31505  Biso   1.000  Ir
  Ir4      1.0000 0.50000  0.82466  0.31505  Biso   1.000  Ir
  Ir5      1.0000 0.00000  0.17534  0.43246  Biso   1.000  Ir
  Ir6      1.0000 0.50000  0.32465  0.43246  Biso   1.000  Ir
  Ir7      1.0000 0.50000  0.67534  0.43246  Biso   1.000  Ir
  Ir8      1.0000 0.00000  0.82466  0.43246  Biso   1.000  Ir
  Ir9      1.0000 0.49997  0.17240  0.54891  Biso   1.000  Ir
  Ir10     1.0000 0.00004  0.32473  0.54992  Biso   1.000  Ir
  Ir11     1.0000 0.00024  0.67698  0.55007  Biso   1.000  Ir
  Ir12     1.0000 0.50006  0.82258  0.55061  Biso   1.000  Ir
  Ir13     1.0000 0.00107  0.18990  0.67130  Biso   1.000  Ir
  Ir14     1.0000 0.50116  0.33154  0.65893  Biso   1.000  Ir
  Ir15     1.0000 0.50151  0.68170  0.67297  Biso   1.000  Ir
  Ir16     1.0000 0.00073  0.83192  0.66876  Biso   1.000  Ir
