data_image0
_cell_length_a       8.04834
_cell_length_b       8.04834
_cell_length_c       34.6897
_cell_angle_alpha    90
_cell_angle_beta     90
_cell_angle_gamma    90

_symmetry_space_group_name_H-M    "P 1"
_symmetry_int_tables_number       1

loop_
  _symmetry_equiv_pos_as_xyz
  'x, y, z'

loop_
  _atom_site_label
  _atom_site_occupancy
  _atom_site_fract_x
  _atom_site_fract_y
  _atom_site_fract_z
  _atom_site_thermal_displace_type
  _atom_site_B_iso_or_equiv
  _atom_site_type_symbol
  Sr1      1.0000 0.99971  0.98289  0.29950  Biso   1.000  Sr
  Ir1      1.0000 0.24943  0.24940  0.35195  Biso   1.000  Ir
  O1       1.0000 0.20802  0.20725  0.29388  Biso   1.000  O
  O2       1.0000 0.99926  0.30030  0.35852  Biso   1.000  O
  O3       1.0000 0.20782  0.99943  0.36180  Biso   1.000  O
  Sr2      1.0000 0.49976  0.01717  0.28827  Biso   1.000  Sr
  Ir2      1.0000 0.74931  0.24935  0.35190  Biso   1.000  Ir
  O4       1.0000 0.78962  0.20545  0.29385  Biso   1.000  O
  O5       1.0000 0.49931  0.19836  0.34530  Biso   1.000  O
  O6       1.0000 0.79030  0.99927  0.36206  Biso   1.000  O
  Sr3      1.0000 0.99975  0.47550  0.29774  Biso   1.000  Sr
  Ir3      1.0000 0.24927  0.74963  0.35190  Biso   1.000  Ir
  O7       1.0000 0.29139  0.79193  0.29390  Biso   1.000  O
  O8       1.0000 0.99929  0.72036  0.34011  Biso   1.000  O
  O9       1.0000 0.29118  0.49943  0.34217  Biso   1.000  O
  Sr4      1.0000 0.49956  0.52375  0.29008  Biso   1.000  Sr
  Ir4      1.0000 0.74948  0.74962  0.35189  Biso   1.000  Ir
  O10      1.0000 0.70823  0.79286  0.29386  Biso   1.000  O
  O11      1.0000 0.49932  0.77842  0.36372  Biso   1.000  O
  O12      1.0000 0.70873  0.49931  0.34179  Biso   1.000  O
  Ir5      1.0000 0.26425  0.21632  0.45815  Biso   1.000  Ir
  O13      1.0000 0.30837  0.99716  0.44742  Biso   1.000  O
  O14      1.0000 0.45491  0.31010  0.47263  Biso   1.000  O
  O15      1.0000 0.28267  0.28188  0.40582  Biso   1.000  O
  Ir6      1.0000 0.26486  0.21990  0.56467  Biso   1.000  Ir
  O16      1.0000 0.28220  0.00113  0.57742  Biso   1.000  O
  O17      1.0000 0.19941  0.17715  0.51030  Biso   1.000  O
  Ir7      1.0000 0.20827  0.28173  0.66533  Biso   1.000  Ir
  O18      1.0000 0.32962  0.28580  0.61817  Biso   1.000  O
  O19      1.0000 0.39601  0.94360  0.64463  Biso   1.000  O
  O20      1.0000 0.26947  0.15297  0.70303  Biso   1.000  O
  Ir8      1.0000 0.23268  0.69947  0.45951  Biso   1.000  Ir
  O21      1.0000 0.15032  0.48544  0.46557  Biso   1.000  O
  O22      1.0000 0.45156  0.65248  0.46685  Biso   1.000  O
  O23      1.0000 0.23482  0.69814  0.40543  Biso   1.000  O
  Ir9      1.0000 0.29888  0.69463  0.56112  Biso   1.000  Ir
  O24      1.0000 0.27230  0.47787  0.54565  Biso   1.000  O
  O25      1.0000 0.20104  0.77477  0.51022  Biso   1.000  O
  Ir10     1.0000 0.31427  0.74542  0.65530  Biso   1.000  Ir
  O26      1.0000 0.39207  0.62653  0.61136  Biso   1.000  O
  O27      1.0000 0.21693  0.50178  0.67595  Biso   1.000  O
  O28      1.0000 0.19906  0.79848  0.70331  Biso   1.000  O
  Ir11     1.0000 0.81683  0.28837  0.45758  Biso   1.000  Ir
  O29      1.0000 0.68114  0.94958  0.45516  Biso   1.000  O
  O30      1.0000 0.00895  0.17040  0.44859  Biso   1.000  O
  O31      1.0000 0.74524  0.29751  0.40733  Biso   1.000  O
  Ir12     1.0000 0.74095  0.25758  0.56371  Biso   1.000  Ir
  O32      1.0000 0.77022  0.00348  0.56849  Biso   1.000  O
  O33      1.0000 0.80894  0.24491  0.51020  Biso   1.000  O
  Ir13     1.0000 0.75885  0.23729  0.67089  Biso   1.000  Ir
  O34      1.0000 0.69633  0.25918  0.61751  Biso   1.000  O
  O35      1.0000 0.72632  0.01505  0.66845  Biso   1.000  O
  O36      1.0000 0.88827  0.24627  0.71229  Biso   1.000  O
  Ir14     1.0000 0.77812  0.75087  0.45776  Biso   1.000  Ir
  O37      1.0000 0.76644  0.51331  0.46875  Biso   1.000  O
  O38      1.0000 0.00338  0.80020  0.44882  Biso   1.000  O
  O39      1.0000 0.75144  0.68874  0.40562  Biso   1.000  O
  Ir15     1.0000 0.73626  0.76267  0.56293  Biso   1.000  Ir
  O40      1.0000 0.75745  0.50525  0.56349  Biso   1.000  O
  O41      1.0000 0.82716  0.76941  0.51322  Biso   1.000  O
  Ir16     1.0000 0.74144  0.70400  0.67046  Biso   1.000  Ir
  O42      1.0000 0.69822  0.74424  0.61846  Biso   1.000  O
  O43      1.0000 0.82992  0.49639  0.66170  Biso   1.000  O
  O44      1.0000 0.83989  0.76948  0.71248  Biso   1.000  O
  O45      1.0000 0.56874  0.31687  0.68984  Biso   1.000  O
  O46      1.0000 0.51400  0.67849  0.68560  Biso   1.000  O
  O47      1.0000 0.01275  0.21947  0.64250  Biso   1.000  O
  O48      1.0000 0.09664  0.76579  0.62872  Biso   1.000  O
  O49      1.0000 0.50428  0.23657  0.54838  Biso   1.000  O
  O50      1.0000 0.50584  0.77435  0.54351  Biso   1.000  O
  O51      1.0000 0.04264  0.26657  0.57531  Biso   1.000  O
  O52      1.0000 0.09168  0.74714  0.58820  Biso   1.000  O
  H1       1.0000 0.26692  0.76283  0.72515  Biso   1.000  H
