data_image0
_cell_length_a       8.04834
_cell_length_b       8.04834
_cell_length_c       34.6897
_cell_angle_alpha    90
_cell_angle_beta     90
_cell_angle_gamma    90

_symmetry_space_group_name_H-M    "P 1"
_symmetry_int_tables_number       1

loop_
  _symmetry_equiv_pos_as_xyz
  'x, y, z'

loop_
  _atom_site_label
  _atom_site_occupancy
  _atom_site_fract_x
  _atom_site_fract_y
  _atom_site_fract_z
  _atom_site_thermal_displace_type
  _atom_site_B_iso_or_equiv
  _atom_site_type_symbol
  Sr1      1.0000 0.99971  0.98289  0.29950  Biso   1.000  Sr
  Ir1      1.0000 0.24943  0.24940  0.35195  Biso   1.000  Ir
  O1       1.0000 0.20802  0.20725  0.29388  Biso   1.000  O
  O2       1.0000 0.99926  0.30030  0.35852  Biso   1.000  O
  O3       1.0000 0.20782  0.99943  0.36180  Biso   1.000  O
  Sr2      1.0000 0.49976  0.01717  0.28827  Biso   1.000  Sr
  Ir2      1.0000 0.74931  0.24935  0.35190  Biso   1.000  Ir
  O4       1.0000 0.78962  0.20545  0.29385  Biso   1.000  O
  O5       1.0000 0.49931  0.19836  0.34530  Biso   1.000  O
  O6       1.0000 0.79030  0.99927  0.36206  Biso   1.000  O
  Sr3      1.0000 0.99975  0.47550  0.29774  Biso   1.000  Sr
  Ir3      1.0000 0.24927  0.74963  0.35190  Biso   1.000  Ir
  O7       1.0000 0.29139  0.79193  0.29390  Biso   1.000  O
  O8       1.0000 0.99929  0.72036  0.34011  Biso   1.000  O
  O9       1.0000 0.29118  0.49943  0.34217  Biso   1.000  O
  Sr4      1.0000 0.49956  0.52375  0.29008  Biso   1.000  Sr
  Ir4      1.0000 0.74948  0.74962  0.35189  Biso   1.000  Ir
  O10      1.0000 0.70823  0.79286  0.29386  Biso   1.000  O
  O11      1.0000 0.49932  0.77842  0.36372  Biso   1.000  O
  O12      1.0000 0.70873  0.49931  0.34179  Biso   1.000  O
  Ir5      1.0000 0.26663  0.21594  0.45862  Biso   1.000  Ir
  O13      1.0000 0.31045  0.99646  0.44742  Biso   1.000  O
  O14      1.0000 0.45966  0.30670  0.47249  Biso   1.000  O
  O15      1.0000 0.28119  0.28204  0.40619  Biso   1.000  O
  Ir6      1.0000 0.26147  0.22341  0.56559  Biso   1.000  Ir
  O16      1.0000 0.27171  0.00477  0.57959  Biso   1.000  O
  O17      1.0000 0.20379  0.17905  0.51112  Biso   1.000  O
  Ir7      1.0000 0.20116  0.28913  0.66664  Biso   1.000  Ir
  O18      1.0000 0.32404  0.28963  0.61999  Biso   1.000  O
  O19      1.0000 0.42993  0.94869  0.65127  Biso   1.000  O
  O20      1.0000 0.26297  0.16020  0.70428  Biso   1.000  O
  Ir8      1.0000 0.24338  0.70192  0.45946  Biso   1.000  Ir
  O21      1.0000 0.16128  0.48901  0.46790  Biso   1.000  O
  O22      1.0000 0.46373  0.65608  0.46479  Biso   1.000  O
  O23      1.0000 0.23376  0.69662  0.40543  Biso   1.000  O
  Ir9      1.0000 0.27959  0.70433  0.56326  Biso   1.000  Ir
  O24      1.0000 0.28640  0.48380  0.54741  Biso   1.000  O
  O25      1.0000 0.22209  0.78320  0.51010  Biso   1.000  O
  Ir10     1.0000 0.30841  0.77312  0.66303  Biso   1.000  Ir
  O26      1.0000 0.35852  0.64793  0.61655  Biso   1.000  O
  O27      1.0000 0.18912  0.50484  0.67744  Biso   1.000  O
  O28      1.0000 0.29214  0.76523  0.71356  Biso   1.000  O
  Ir11     1.0000 0.81700  0.28830  0.45797  Biso   1.000  Ir
  O29      1.0000 0.69108  0.95712  0.45728  Biso   1.000  O
  O30      1.0000 0.01101  0.17090  0.45016  Biso   1.000  O
  O31      1.0000 0.74724  0.29204  0.40760  Biso   1.000  O
  Ir12     1.0000 0.74004  0.24775  0.56463  Biso   1.000  Ir
  O32      1.0000 0.77552  0.00549  0.56338  Biso   1.000  O
  O33      1.0000 0.80769  0.25644  0.51096  Biso   1.000  O
  Ir13     1.0000 0.75858  0.24712  0.67199  Biso   1.000  Ir
  O34      1.0000 0.69587  0.23413  0.61865  Biso   1.000  O
  O35      1.0000 0.74475  0.02749  0.67955  Biso   1.000  O
  O36      1.0000 0.88618  0.29997  0.71198  Biso   1.000  O
  Ir14     1.0000 0.78331  0.75489  0.45799  Biso   1.000  Ir
  O37      1.0000 0.77075  0.51322  0.46661  Biso   1.000  O
  O38      1.0000 0.01003  0.80229  0.45081  Biso   1.000  O
  O39      1.0000 0.75822  0.69952  0.40592  Biso   1.000  O
  Ir15     1.0000 0.74094  0.75328  0.56361  Biso   1.000  Ir
  O40      1.0000 0.74628  0.50902  0.56841  Biso   1.000  O
  O41      1.0000 0.82626  0.75412  0.51301  Biso   1.000  O
  Ir16     1.0000 0.76513  0.69558  0.66817  Biso   1.000  Ir
  O42      1.0000 0.73370  0.79234  0.61998  Biso   1.000  O
  O43      1.0000 0.83858  0.49347  0.65058  Biso   1.000  O
  O44      1.0000 0.88208  0.75304  0.70813  Biso   1.000  O
  O45      1.0000 0.56531  0.32944  0.68806  Biso   1.000  O
  O46      1.0000 0.55058  0.64085  0.67951  Biso   1.000  O
  O47      1.0000 0.01214  0.20891  0.64401  Biso   1.000  O
  O48      1.0000 0.10548  0.82897  0.64699  Biso   1.000  O
  O49      1.0000 0.50294  0.23483  0.55001  Biso   1.000  O
  O50      1.0000 0.50615  0.77042  0.55063  Biso   1.000  O
  O51      1.0000 0.04051  0.27449  0.57568  Biso   1.000  O
  O52      1.0000 0.06761  0.72826  0.57978  Biso   1.000  O
