data_image0
_cell_length_a       5.1456
_cell_length_b       4.88305
_cell_length_c       35.4688
_cell_angle_alpha    90
_cell_angle_beta     85.8634
_cell_angle_gamma    90

_symmetry_space_group_name_H-M    "P 1"
_symmetry_int_tables_number       1

loop_
  _symmetry_equiv_pos_as_xyz
  'x, y, z'

loop_
  _atom_site_label
  _atom_site_occupancy
  _atom_site_fract_x
  _atom_site_fract_y
  _atom_site_fract_z
  _atom_site_thermal_displace_type
  _atom_site_B_iso_or_equiv
  _atom_site_type_symbol
  Ir1      1.0000 0.08642  0.50000  0.26728  Biso   1.000  Ir
  Ir2      1.0000 0.58642  0.00000  0.36728  Biso   1.000  Ir
  Ir3      1.0000 0.08642  0.50000  0.36728  Biso   1.000  Ir
  Ir4      1.0000 0.58642  0.00000  0.26728  Biso   1.000  Ir
  Ir5      1.0000 0.08642  0.50000  0.46728  Biso   1.000  Ir
  Ir6      1.0000 0.58642  0.00000  0.56728  Biso   1.000  Ir
  Ir7      1.0000 0.08642  0.50000  0.56728  Biso   1.000  Ir
  Ir8      1.0000 0.58642  0.00000  0.46728  Biso   1.000  Ir
  Ir9      1.0000 0.08642  0.50000  0.66728  Biso   1.000  Ir
  Ir10     1.0000 0.58642  0.00000  0.76728  Biso   1.000  Ir
  Ir11     1.0000 0.08642  0.50000  0.76728  Biso   1.000  Ir
  Ir12     1.0000 0.58642  0.00000  0.66728  Biso   1.000  Ir
  O1       1.0000 0.08642  0.34569  0.21728  Biso   1.000  O
  O2       1.0000 0.58642  0.84569  0.31728  Biso   1.000  O
  O3       1.0000 0.75928  0.67285  0.38271  Biso   1.000  O
  O4       1.0000 0.25928  0.17286  0.28271  Biso   1.000  O
  O5       1.0000 0.91358  0.82715  0.25185  Biso   1.000  O
  O6       1.0000 0.41358  0.32715  0.35185  Biso   1.000  O
  O7       1.0000 0.58642  0.15429  0.21728  Biso   1.000  O
  O8       1.0000 0.08642  0.65429  0.31728  Biso   1.000  O
  O9       1.0000 0.75927  0.32715  0.28272  Biso   1.000  O
  O10      1.0000 0.25927  0.82715  0.38272  Biso   1.000  O
  O11      1.0000 0.41357  0.67286  0.25186  Biso   1.000  O
  O12      1.0000 0.91357  0.17286  0.35186  Biso   1.000  O
  O13      1.0000 0.08642  0.34569  0.41728  Biso   1.000  O
  O14      1.0000 0.58642  0.84569  0.51728  Biso   1.000  O
  O15      1.0000 0.75928  0.67285  0.58271  Biso   1.000  O
  O16      1.0000 0.25928  0.17286  0.48271  Biso   1.000  O
  O17      1.0000 0.91358  0.82715  0.45185  Biso   1.000  O
  O18      1.0000 0.41358  0.32715  0.55185  Biso   1.000  O
  O19      1.0000 0.58642  0.15429  0.41728  Biso   1.000  O
  O20      1.0000 0.08642  0.65429  0.51728  Biso   1.000  O
  O21      1.0000 0.75927  0.32715  0.48272  Biso   1.000  O
  O22      1.0000 0.25927  0.82715  0.58272  Biso   1.000  O
  O23      1.0000 0.41357  0.67285  0.45186  Biso   1.000  O
  O24      1.0000 0.91357  0.17286  0.55186  Biso   1.000  O
  O25      1.0000 0.08642  0.34569  0.61728  Biso   1.000  O
  O26      1.0000 0.58642  0.84569  0.71728  Biso   1.000  O
  O27      1.0000 0.75928  0.67286  0.78271  Biso   1.000  O
  O28      1.0000 0.25928  0.17286  0.68271  Biso   1.000  O
  O29      1.0000 0.91358  0.82716  0.65185  Biso   1.000  O
  O30      1.0000 0.41358  0.32715  0.75185  Biso   1.000  O
  O31      1.0000 0.58642  0.15429  0.61728  Biso   1.000  O
  O32      1.0000 0.08642  0.65429  0.71728  Biso   1.000  O
  O33      1.0000 0.75927  0.32716  0.68272  Biso   1.000  O
  O34      1.0000 0.25927  0.82716  0.78272  Biso   1.000  O
  O35      1.0000 0.41357  0.67286  0.65186  Biso   1.000  O
  O36      1.0000 0.91357  0.17286  0.75186  Biso   1.000  O
