data_image0
_cell_length_a       4.88305
_cell_length_b       4.88305
_cell_length_c       62.2739
_cell_angle_alpha    90
_cell_angle_beta     90
_cell_angle_gamma    60

_symmetry_space_group_name_H-M    "P 1"
_symmetry_int_tables_number       1

loop_
  _symmetry_equiv_pos_as_xyz
  'x, y, z'

loop_
  _atom_site_label
  _atom_site_occupancy
  _atom_site_fract_x
  _atom_site_fract_y
  _atom_site_fract_z
  _atom_site_thermal_displace_type
  _atom_site_B_iso_or_equiv
  _atom_site_type_symbol
  O1       1.0000 0.69140  0.00000  0.14575  Biso   1.000  O
  O2       1.0000 0.99998  0.34571  0.14575  Biso   1.000  O
  O3       1.0000 0.34569  0.65429  0.14575  Biso   1.000  O
  Ir1      1.0000 0.01236  0.66667  0.16303  Biso   1.000  Ir
  O4       1.0000 0.33333  0.33333  0.18031  Biso   1.000  O
  O5       1.0000 0.67902  0.67902  0.18031  Biso   1.000  O
  O6       1.0000 0.02471  0.98764  0.18031  Biso   1.000  O
  Ir2      1.0000 0.34569  0.00000  0.19759  Biso   1.000  Ir
  O7       1.0000 0.66665  0.01238  0.21487  Biso   1.000  O
  O8       1.0000 0.01236  0.32096  0.21487  Biso   1.000  O
  O9       1.0000 0.35807  0.66667  0.21487  Biso   1.000  O
  Ir3      1.0000 0.67902  0.33333  0.23215  Biso   1.000  Ir
  O10      1.0000 0.00000  0.00000  0.24943  Biso   1.000  O
  O11      1.0000 0.34569  0.34569  0.24943  Biso   1.000  O
  O12      1.0000 0.69138  0.65431  0.24943  Biso   1.000  O
  Ir4      1.0000 0.01236  0.66667  0.26671  Biso   1.000  Ir
  O13      1.0000 0.02473  0.33333  0.28399  Biso   1.000  O
  O14      1.0000 0.33331  0.67904  0.28399  Biso   1.000  O
  O15      1.0000 0.67902  0.98762  0.28399  Biso   1.000  O
  Ir5      1.0000 0.34569  0.00000  0.30127  Biso   1.000  Ir
  O16      1.0000 0.01236  0.01236  0.31855  Biso   1.000  O
  O17      1.0000 0.35805  0.32098  0.31855  Biso   1.000  O
  O18      1.0000 0.66667  0.66667  0.31855  Biso   1.000  O
  Ir6      1.0000 0.67902  0.33333  0.33583  Biso   1.000  Ir
  O19      1.0000 0.69140  0.00000  0.35311  Biso   1.000  O
  O20      1.0000 0.99998  0.34571  0.35311  Biso   1.000  O
  O21      1.0000 0.34569  0.65429  0.35311  Biso   1.000  O
  Ir7      1.0000 0.01236  0.66667  0.37039  Biso   1.000  Ir
  O22      1.0000 0.33333  0.33333  0.38768  Biso   1.000  O
  O23      1.0000 0.67902  0.67902  0.38768  Biso   1.000  O
  O24      1.0000 0.02471  0.98764  0.38768  Biso   1.000  O
  Ir8      1.0000 0.34569  0.00000  0.40496  Biso   1.000  Ir
  O25      1.0000 0.66665  0.01238  0.42224  Biso   1.000  O
  O26      1.0000 0.01236  0.32096  0.42224  Biso   1.000  O
  O27      1.0000 0.35807  0.66667  0.42224  Biso   1.000  O
  Ir9      1.0000 0.67902  0.33333  0.43952  Biso   1.000  Ir
  O28      1.0000 0.00000  0.00000  0.45680  Biso   1.000  O
  O29      1.0000 0.34569  0.34569  0.45680  Biso   1.000  O
  O30      1.0000 0.69138  0.65431  0.45680  Biso   1.000  O
  Ir10     1.0000 0.01236  0.66667  0.47408  Biso   1.000  Ir
  O31      1.0000 0.02473  0.33333  0.49136  Biso   1.000  O
  O32      1.0000 0.67902  0.98762  0.49136  Biso   1.000  O
  O33      1.0000 0.33331  0.67904  0.49136  Biso   1.000  O
