data_image0
_cell_length_a       8.45769
_cell_length_b       4.88305
_cell_length_c       27.9135
_cell_angle_alpha    90
_cell_angle_beta     90
_cell_angle_gamma    90

_symmetry_space_group_name_H-M    "P 1"
_symmetry_int_tables_number       1

loop_
  _symmetry_equiv_pos_as_xyz
  'x, y, z'

loop_
  _atom_site_label
  _atom_site_occupancy
  _atom_site_fract_x
  _atom_site_fract_y
  _atom_site_fract_z
  _atom_site_thermal_displace_type
  _atom_site_B_iso_or_equiv
  _atom_site_type_symbol
  Ir1      1.0000 0.66958  0.07649  0.53906  Biso   1.000  Ir
  Ir2      1.0000 0.16973  0.57901  0.53849  Biso   1.000  Ir
  Ir3      1.0000 0.00309  0.07715  0.38434  Biso   1.000  Ir
  Ir4      1.0000 0.50309  0.57715  0.38434  Biso   1.000  Ir
  Ir5      1.0000 0.33640  0.07752  0.70122  Biso   1.000  Ir
  Ir6      1.0000 0.84166  0.59704  0.69810  Biso   1.000  Ir
  Ir7      1.0000 0.66976  0.07715  0.30723  Biso   1.000  Ir
  Ir8      1.0000 0.16976  0.57715  0.30723  Biso   1.000  Ir
  Ir9      1.0000 0.49979  0.57398  0.61713  Biso   1.000  Ir
  Ir10     1.0000 0.00306  0.08312  0.61659  Biso   1.000  Ir
  Ir11     1.0000 0.33642  0.07715  0.46144  Biso   1.000  Ir
  Ir12     1.0000 0.83642  0.57715  0.46144  Biso   1.000  Ir
  O1       1.0000 0.65989  0.40117  0.57771  Biso   1.000  O
  O2       1.0000 0.15988  0.90430  0.57712  Biso   1.000  O
  O3       1.0000 0.49692  0.90430  0.42290  Biso   1.000  O
  O4       1.0000 0.99691  0.40430  0.42290  Biso   1.000  O
  O5       1.0000 0.33024  0.40430  0.26869  Biso   1.000  O
  O6       1.0000 0.83024  0.90430  0.26869  Biso   1.000  O
  O7       1.0000 0.48571  0.24443  0.65393  Biso   1.000  O
  O8       1.0000 0.99705  0.75232  0.65415  Biso   1.000  O
  O9       1.0000 0.33024  0.75000  0.49999  Biso   1.000  O
  O10      1.0000 0.83024  0.25000  0.49999  Biso   1.000  O
  O11      1.0000 0.66357  0.75000  0.34578  Biso   1.000  O
  O12      1.0000 0.16356  0.25000  0.34578  Biso   1.000  O
  O13      1.0000 0.51189  0.89782  0.57774  Biso   1.000  O
  O14      1.0000 0.00898  0.40434  0.57632  Biso   1.000  O
  O15      1.0000 0.34261  0.40430  0.42290  Biso   1.000  O
  O16      1.0000 0.84261  0.90430  0.42290  Biso   1.000  O
  O17      1.0000 0.17593  0.90430  0.26869  Biso   1.000  O
  O18      1.0000 0.67594  0.40430  0.26869  Biso   1.000  O
  O19      1.0000 0.34427  0.75343  0.65463  Biso   1.000  O
  O20      1.0000 0.84539  0.25991  0.65326  Biso   1.000  O
  O21      1.0000 0.17595  0.25000  0.49999  Biso   1.000  O
  O22      1.0000 0.67594  0.75000  0.49999  Biso   1.000  O
  O23      1.0000 0.50927  0.25000  0.34578  Biso   1.000  O
  O24      1.0000 0.00927  0.75000  0.34578  Biso   1.000  O
  O25      1.0000 0.83834  0.92733  0.57713  Biso   1.000  O
  O26      1.0000 0.33639  0.42455  0.57691  Biso   1.000  O
  O27      1.0000 0.16976  0.92284  0.42290  Biso   1.000  O
  O28      1.0000 0.66976  0.42284  0.42290  Biso   1.000  O
  O29      1.0000 0.50309  0.92284  0.26869  Biso   1.000  O
  O30      1.0000 0.00309  0.42284  0.26869  Biso   1.000  O
  O31      1.0000 0.16889  0.22756  0.65341  Biso   1.000  O
  O32      1.0000 0.66838  0.70345  0.65741  Biso   1.000  O
  O33      1.0000 0.50309  0.23144  0.49999  Biso   1.000  O
  O34      1.0000 0.00309  0.73144  0.49999  Biso   1.000  O
  O35      1.0000 0.83642  0.23144  0.34578  Biso   1.000  O
  O36      1.0000 0.33642  0.73144  0.34578  Biso   1.000  O
  O37      1.0000 0.32644  0.40065  0.72912  Biso   1.000  O
  O38      1.0000 0.83234  0.90689  0.73105  Biso   1.000  O
  O39      1.0000 0.17512  0.91110  0.72823  Biso   1.000  O
  O40      1.0000 0.68130  0.40564  0.73501  Biso   1.000  O
  O41      1.0000 0.49508  0.92464  0.73200  Biso   1.000  O
  O42      1.0000 0.98988  0.41754  0.72996  Biso   1.000  O
  H1       1.0000 0.72940  0.23610  0.74769  Biso   1.000  H
