data_image0
_cell_length_a       4.69635
_cell_length_b       8.72335
_cell_length_c       36.4872
_cell_angle_alpha    90
_cell_angle_beta     90
_cell_angle_gamma    90

_symmetry_space_group_name_H-M    "P 1"
_symmetry_int_tables_number       1

loop_
  _symmetry_equiv_pos_as_xyz
  'x, y, z'

loop_
  _atom_site_label
  _atom_site_occupancy
  _atom_site_fract_x
  _atom_site_fract_y
  _atom_site_fract_z
  _atom_site_thermal_displace_type
  _atom_site_B_iso_or_equiv
  _atom_site_type_symbol
  O1       1.0000 0.39273  0.32474  0.20555  Biso   1.000  O
  O2       1.0000 0.39273  0.67526  0.20555  Biso   1.000  O
  O3       1.0000 0.89272  0.17526  0.21525  Biso   1.000  O
  O4       1.0000 0.89272  0.82474  0.21525  Biso   1.000  O
  O5       1.0000 0.86068  0.50000  0.21937  Biso   1.000  O
  Ir1      1.0000 0.68033  0.32466  0.24258  Biso   1.000  Ir
  Ir2      1.0000 0.68033  0.67535  0.24258  Biso   1.000  Ir
  O6       1.0000 0.49998  0.50000  0.26579  Biso   1.000  O
  O7       1.0000 0.46794  0.17526  0.26992  Biso   1.000  O
  O8       1.0000 0.46794  0.82474  0.26992  Biso   1.000  O
  O9       1.0000 0.96794  0.32474  0.27959  Biso   1.000  O
  O10      1.0000 0.96794  0.67526  0.27959  Biso   1.000  O
  O11      1.0000 0.99999  0.00000  0.28372  Biso   1.000  O
  Ir3      1.0000 0.18033  0.17534  0.30693  Biso   1.000  Ir
  Ir4      1.0000 0.18033  0.82466  0.30693  Biso   1.000  Ir
  O12      1.0000 0.36068  0.00000  0.33014  Biso   1.000  O
  O13      1.0000 0.39273  0.32474  0.33426  Biso   1.000  O
  O14      1.0000 0.39273  0.67526  0.33426  Biso   1.000  O
  O15      1.0000 0.89272  0.17526  0.34394  Biso   1.000  O
  O16      1.0000 0.89272  0.82474  0.34394  Biso   1.000  O
  O17      1.0000 0.86068  0.50000  0.34808  Biso   1.000  O
  Ir5      1.0000 0.68033  0.32466  0.37129  Biso   1.000  Ir
  Ir6      1.0000 0.68033  0.67535  0.37129  Biso   1.000  Ir
  O18      1.0000 0.49998  0.50000  0.39451  Biso   1.000  O
  O19      1.0000 0.46794  0.17526  0.39863  Biso   1.000  O
  O20      1.0000 0.46794  0.82474  0.39863  Biso   1.000  O
  O21      1.0000 0.96794  0.32474  0.40831  Biso   1.000  O
  O22      1.0000 0.96794  0.67526  0.40831  Biso   1.000  O
  O23      1.0000 0.99999  0.00000  0.41243  Biso   1.000  O
  Ir7      1.0000 0.18033  0.17534  0.43564  Biso   1.000  Ir
  Ir8      1.0000 0.18033  0.82466  0.43564  Biso   1.000  Ir
  O24      1.0000 0.36068  0.00000  0.45886  Biso   1.000  O
  O25      1.0000 0.39273  0.32474  0.46298  Biso   1.000  O
  O26      1.0000 0.39273  0.67526  0.46298  Biso   1.000  O
  O27      1.0000 0.89272  0.17526  0.47266  Biso   1.000  O
  O28      1.0000 0.89272  0.82474  0.47266  Biso   1.000  O
  O29      1.0000 0.86068  0.50000  0.47678  Biso   1.000  O
  Ir9      1.0000 0.68033  0.32466  0.49999  Biso   1.000  Ir
  Ir10     1.0000 0.68033  0.67535  0.49999  Biso   1.000  Ir
  O30      1.0000 0.49998  0.50000  0.52322  Biso   1.000  O
  O31      1.0000 0.46794  0.17526  0.52734  Biso   1.000  O
  O32      1.0000 0.46794  0.82474  0.52734  Biso   1.000  O
  O33      1.0000 0.96794  0.32474  0.53702  Biso   1.000  O
  O34      1.0000 0.96794  0.67526  0.53702  Biso   1.000  O
  O35      1.0000 0.99999  0.00000  0.54114  Biso   1.000  O
  Ir11     1.0000 0.18033  0.17534  0.56436  Biso   1.000  Ir
  Ir12     1.0000 0.18033  0.82466  0.56436  Biso   1.000  Ir
  O36      1.0000 0.36068  0.00000  0.58757  Biso   1.000  O
  O37      1.0000 0.39273  0.32474  0.59169  Biso   1.000  O
  O38      1.0000 0.39273  0.67526  0.59169  Biso   1.000  O
  O39      1.0000 0.89272  0.17526  0.60137  Biso   1.000  O
  O40      1.0000 0.89272  0.82474  0.60137  Biso   1.000  O
  O41      1.0000 0.86068  0.50000  0.60549  Biso   1.000  O
  Ir13     1.0000 0.68033  0.32466  0.62871  Biso   1.000  Ir
  Ir14     1.0000 0.68033  0.67535  0.62871  Biso   1.000  Ir
  O42      1.0000 0.49998  0.50000  0.65192  Biso   1.000  O
  O43      1.0000 0.46794  0.17526  0.65606  Biso   1.000  O
  O44      1.0000 0.46794  0.82474  0.65606  Biso   1.000  O
  O45      1.0000 0.96794  0.32474  0.66574  Biso   1.000  O
  O46      1.0000 0.96794  0.67526  0.66574  Biso   1.000  O
  O47      1.0000 0.99999  0.00000  0.66986  Biso   1.000  O
  Ir15     1.0000 0.18034  0.17534  0.69307  Biso   1.000  Ir
  Ir16     1.0000 0.18034  0.82466  0.69307  Biso   1.000  Ir
  O48      1.0000 0.36069  0.00000  0.71628  Biso   1.000  O
  O49      1.0000 0.39274  0.32474  0.72041  Biso   1.000  O
  O50      1.0000 0.39274  0.67526  0.72041  Biso   1.000  O
  O51      1.0000 0.89273  0.17526  0.73008  Biso   1.000  O
  O52      1.0000 0.89273  0.82474  0.73008  Biso   1.000  O
  O53      1.0000 0.86069  0.50000  0.73421  Biso   1.000  O
  Ir17     1.0000 0.68034  0.32466  0.75742  Biso   1.000  Ir
  Ir18     1.0000 0.68034  0.67535  0.75742  Biso   1.000  Ir
  O54      1.0000 0.49999  0.50000  0.78063  Biso   1.000  O
  O55      1.0000 0.46795  0.17526  0.78475  Biso   1.000  O
  O56      1.0000 0.46795  0.82474  0.78475  Biso   1.000  O
  O57      1.0000 0.96795  0.32474  0.79445  Biso   1.000  O
  O58      1.0000 0.96795  0.67526  0.79445  Biso   1.000  O
