data_image0
_cell_length_a       4.69635
_cell_length_b       8.72335
_cell_length_c       45.88
_cell_angle_alpha    90
_cell_angle_beta     90
_cell_angle_gamma    90

_symmetry_space_group_name_H-M    "P 1"
_symmetry_int_tables_number       1

loop_
  _symmetry_equiv_pos_as_xyz
  'x, y, z'

loop_
  _atom_site_label
  _atom_site_occupancy
  _atom_site_fract_x
  _atom_site_fract_y
  _atom_site_fract_z
  _atom_site_thermal_displace_type
  _atom_site_B_iso_or_equiv
  _atom_site_type_symbol
  O1       1.0000 0.39273  0.32474  0.16347  Biso   1.000  O
  O2       1.0000 0.39273  0.67526  0.16347  Biso   1.000  O
  O3       1.0000 0.89272  0.17526  0.17118  Biso   1.000  O
  O4       1.0000 0.89272  0.82474  0.17118  Biso   1.000  O
  O5       1.0000 0.86068  0.50000  0.17446  Biso   1.000  O
  Ir1      1.0000 0.68033  0.32466  0.19292  Biso   1.000  Ir
  Ir2      1.0000 0.68033  0.67535  0.19292  Biso   1.000  Ir
  O6       1.0000 0.49998  0.50000  0.21138  Biso   1.000  O
  O7       1.0000 0.46794  0.17526  0.21466  Biso   1.000  O
  O8       1.0000 0.46794  0.82474  0.21466  Biso   1.000  O
  O9       1.0000 0.96794  0.32474  0.22235  Biso   1.000  O
  O10      1.0000 0.96794  0.67526  0.22235  Biso   1.000  O
  O11      1.0000 0.99999  0.00000  0.22563  Biso   1.000  O
  Ir3      1.0000 0.18033  0.17534  0.24409  Biso   1.000  Ir
  Ir4      1.0000 0.18033  0.82466  0.24409  Biso   1.000  Ir
  O12      1.0000 0.36068  0.00000  0.26255  Biso   1.000  O
  O13      1.0000 0.39273  0.32474  0.26583  Biso   1.000  O
  O14      1.0000 0.39273  0.67526  0.26583  Biso   1.000  O
  O15      1.0000 0.89272  0.17526  0.27354  Biso   1.000  O
  O16      1.0000 0.89272  0.82474  0.27354  Biso   1.000  O
  O17      1.0000 0.86068  0.50000  0.27682  Biso   1.000  O
  Ir5      1.0000 0.68033  0.32466  0.29528  Biso   1.000  Ir
  Ir6      1.0000 0.68033  0.67535  0.29528  Biso   1.000  Ir
  O18      1.0000 0.49998  0.50000  0.31374  Biso   1.000  O
  O19      1.0000 0.46794  0.17526  0.31702  Biso   1.000  O
  O20      1.0000 0.46794  0.82474  0.31702  Biso   1.000  O
  O21      1.0000 0.96794  0.32474  0.32472  Biso   1.000  O
  O22      1.0000 0.96794  0.67526  0.32472  Biso   1.000  O
  O23      1.0000 0.99999  0.00000  0.32800  Biso   1.000  O
  Ir7      1.0000 0.18033  0.17534  0.34646  Biso   1.000  Ir
  Ir8      1.0000 0.18033  0.82466  0.34646  Biso   1.000  Ir
  O24      1.0000 0.36068  0.00000  0.36492  Biso   1.000  O
  O25      1.0000 0.39273  0.32474  0.36820  Biso   1.000  O
  O26      1.0000 0.39273  0.67526  0.36820  Biso   1.000  O
  O27      1.0000 0.89272  0.17526  0.37589  Biso   1.000  O
  O28      1.0000 0.89272  0.82474  0.37589  Biso   1.000  O
  O29      1.0000 0.86068  0.50000  0.37918  Biso   1.000  O
  Ir9      1.0000 0.68033  0.32466  0.39764  Biso   1.000  Ir
  Ir10     1.0000 0.68033  0.67535  0.39764  Biso   1.000  Ir
  O30      1.0000 0.49998  0.50000  0.41610  Biso   1.000  O
  O31      1.0000 0.46794  0.17526  0.41938  Biso   1.000  O
  O32      1.0000 0.46794  0.82474  0.41938  Biso   1.000  O
  O33      1.0000 0.96794  0.32474  0.42708  Biso   1.000  O
  O34      1.0000 0.96794  0.67526  0.42708  Biso   1.000  O
  O35      1.0000 0.99999  0.00000  0.43036  Biso   1.000  O
  Ir11     1.0000 0.18033  0.17534  0.44882  Biso   1.000  Ir
  Ir12     1.0000 0.18033  0.82466  0.44882  Biso   1.000  Ir
  O36      1.0000 0.36068  0.00000  0.46728  Biso   1.000  O
  O37      1.0000 0.39273  0.32474  0.47056  Biso   1.000  O
  O38      1.0000 0.39273  0.67526  0.47056  Biso   1.000  O
  O39      1.0000 0.89272  0.17526  0.47825  Biso   1.000  O
  O40      1.0000 0.89272  0.82474  0.47825  Biso   1.000  O
  O41      1.0000 0.86068  0.50000  0.48153  Biso   1.000  O
  Ir13     1.0000 0.68033  0.32466  0.49999  Biso   1.000  Ir
  Ir14     1.0000 0.68033  0.67535  0.49999  Biso   1.000  Ir
  O42      1.0000 0.49998  0.50000  0.51847  Biso   1.000  O
  O43      1.0000 0.46794  0.17526  0.52175  Biso   1.000  O
  O44      1.0000 0.46794  0.82474  0.52175  Biso   1.000  O
  O45      1.0000 0.96794  0.32474  0.52944  Biso   1.000  O
  O46      1.0000 0.96794  0.67526  0.52944  Biso   1.000  O
  O47      1.0000 0.99999  0.00000  0.53272  Biso   1.000  O
  Ir15     1.0000 0.18033  0.17534  0.55118  Biso   1.000  Ir
  Ir16     1.0000 0.18033  0.82466  0.55118  Biso   1.000  Ir
  O48      1.0000 0.36068  0.00000  0.56964  Biso   1.000  O
  O49      1.0000 0.39273  0.32474  0.57292  Biso   1.000  O
  O50      1.0000 0.39273  0.67526  0.57292  Biso   1.000  O
  O51      1.0000 0.89272  0.17526  0.58062  Biso   1.000  O
  O52      1.0000 0.89272  0.82474  0.58062  Biso   1.000  O
  O53      1.0000 0.86068  0.50000  0.58390  Biso   1.000  O
  Ir17     1.0000 0.68033  0.32466  0.60236  Biso   1.000  Ir
  Ir18     1.0000 0.68033  0.67535  0.60236  Biso   1.000  Ir
  O54      1.0000 0.49998  0.50000  0.62082  Biso   1.000  O
  O55      1.0000 0.46794  0.17526  0.62411  Biso   1.000  O
  O56      1.0000 0.46794  0.82474  0.62411  Biso   1.000  O
  O57      1.0000 0.96794  0.32474  0.63180  Biso   1.000  O
  O58      1.0000 0.96794  0.67526  0.63180  Biso   1.000  O
  O59      1.0000 0.99999  0.00000  0.63508  Biso   1.000  O
  Ir19     1.0000 0.18034  0.17534  0.65354  Biso   1.000  Ir
  Ir20     1.0000 0.18034  0.82466  0.65354  Biso   1.000  Ir
  O60      1.0000 0.36069  0.00000  0.67200  Biso   1.000  O
  O61      1.0000 0.39274  0.32474  0.67528  Biso   1.000  O
  O62      1.0000 0.39274  0.67526  0.67528  Biso   1.000  O
  O63      1.0000 0.89273  0.17526  0.68298  Biso   1.000  O
  O64      1.0000 0.89273  0.82474  0.68298  Biso   1.000  O
  O65      1.0000 0.86069  0.50000  0.68626  Biso   1.000  O
  Ir21     1.0000 0.68034  0.32466  0.70472  Biso   1.000  Ir
  Ir22     1.0000 0.68034  0.67535  0.70472  Biso   1.000  Ir
  O66      1.0000 0.49999  0.50000  0.72318  Biso   1.000  O
  O67      1.0000 0.46795  0.17526  0.72646  Biso   1.000  O
  O68      1.0000 0.46795  0.82474  0.72646  Biso   1.000  O
  O69      1.0000 0.96795  0.32474  0.73417  Biso   1.000  O
  O70      1.0000 0.96795  0.67526  0.73417  Biso   1.000  O
  O71      1.0000 0.00000  0.00000  0.73745  Biso   1.000  O
  Ir23     1.0000 0.18034  0.17534  0.75591  Biso   1.000  Ir
  Ir24     1.0000 0.18034  0.82466  0.75591  Biso   1.000  Ir
  O72      1.0000 0.36069  0.00000  0.77437  Biso   1.000  O
  O73      1.0000 0.39274  0.32474  0.77765  Biso   1.000  O
  O74      1.0000 0.39274  0.67526  0.77765  Biso   1.000  O
  O75      1.0000 0.89273  0.17526  0.78534  Biso   1.000  O
  O76      1.0000 0.89273  0.82474  0.78534  Biso   1.000  O
  O77      1.0000 0.86069  0.50000  0.78862  Biso   1.000  O
  Ir25     1.0000 0.68034  0.32466  0.80708  Biso   1.000  Ir
  Ir26     1.0000 0.68034  0.67535  0.80708  Biso   1.000  Ir
  O78      1.0000 0.49999  0.50000  0.82554  Biso   1.000  O
  O79      1.0000 0.46795  0.17526  0.82882  Biso   1.000  O
  O80      1.0000 0.46795  0.82474  0.82882  Biso   1.000  O
  O81      1.0000 0.96795  0.32474  0.83653  Biso   1.000  O
  O82      1.0000 0.96795  0.67526  0.83653  Biso   1.000  O
