data_image0
_cell_length_a       9.3927
_cell_length_b       8.72335
_cell_length_c       27.0937
_cell_angle_alpha    90
_cell_angle_beta     90
_cell_angle_gamma    90

_symmetry_space_group_name_H-M    "P 1"
_symmetry_int_tables_number       1

loop_
  _symmetry_equiv_pos_as_xyz
  'x, y, z'

loop_
  _atom_site_label
  _atom_site_occupancy
  _atom_site_fract_x
  _atom_site_fract_y
  _atom_site_fract_z
  _atom_site_thermal_displace_type
  _atom_site_B_iso_or_equiv
  _atom_site_type_symbol
  O1       1.0000 0.19637  0.32474  0.27682  Biso   1.000  O
  O2       1.0000 0.19637  0.67526  0.27682  Biso   1.000  O
  O3       1.0000 0.44636  0.17526  0.28985  Biso   1.000  O
  O4       1.0000 0.44636  0.82474  0.28985  Biso   1.000  O
  O5       1.0000 0.43034  0.50000  0.29540  Biso   1.000  O
  O6       1.0000 0.24999  0.50000  0.35792  Biso   1.000  O
  O7       1.0000 0.23397  0.17526  0.36348  Biso   1.000  O
  O8       1.0000 0.23397  0.82474  0.36348  Biso   1.000  O
  O9       1.0000 0.48397  0.32474  0.37652  Biso   1.000  O
  O10      1.0000 0.48397  0.67526  0.37652  Biso   1.000  O
  O11      1.0000 0.50000  0.00000  0.38207  Biso   1.000  O
  O12      1.0000 0.18034  0.00000  0.44458  Biso   1.000  O
  O13      1.0000 0.19637  0.32474  0.45015  Biso   1.000  O
  O14      1.0000 0.19637  0.67526  0.45015  Biso   1.000  O
  O15      1.0000 0.44636  0.17526  0.46318  Biso   1.000  O
  O16      1.0000 0.44636  0.82474  0.46318  Biso   1.000  O
  O17      1.0000 0.43034  0.50000  0.46873  Biso   1.000  O
  O18      1.0000 0.24999  0.50000  0.53127  Biso   1.000  O
  O19      1.0000 0.23397  0.17526  0.53682  Biso   1.000  O
  O20      1.0000 0.23397  0.82474  0.53682  Biso   1.000  O
  O21      1.0000 0.48549  0.32619  0.54949  Biso   1.000  O
  O22      1.0000 0.48193  0.67532  0.55116  Biso   1.000  O
  O23      1.0000 0.49940  0.99787  0.55710  Biso   1.000  O
  O24      1.0000 0.18125  0.99748  0.61748  Biso   1.000  O
  O25      1.0000 0.18401  0.32553  0.62759  Biso   1.000  O
  O26      1.0000 0.21168  0.68291  0.62347  Biso   1.000  O
  O27      1.0000 0.44102  0.18060  0.63476  Biso   1.000  O
  O28      1.0000 0.45355  0.82309  0.64057  Biso   1.000  O
  O29      1.0000 0.44906  0.49889  0.64840  Biso   1.000  O
  O30      1.0000 0.24444  0.51356  0.70167  Biso   1.000  O
  O31      1.0000 0.36498  0.25083  0.72659  Biso   1.000  O
  O32      1.0000 0.21750  0.81796  0.71008  Biso   1.000  O
  O33      1.0000 0.47389  0.68516  0.72756  Biso   1.000  O
  O34      1.0000 0.69637  0.32474  0.27682  Biso   1.000  O
  O35      1.0000 0.69637  0.67526  0.27682  Biso   1.000  O
  O36      1.0000 0.94636  0.17526  0.28985  Biso   1.000  O
  O37      1.0000 0.94636  0.82474  0.28985  Biso   1.000  O
  O38      1.0000 0.93034  0.50000  0.29540  Biso   1.000  O
  O39      1.0000 0.74999  0.50000  0.35792  Biso   1.000  O
  O40      1.0000 0.73397  0.17526  0.36348  Biso   1.000  O
  O41      1.0000 0.73397  0.82474  0.36348  Biso   1.000  O
  O42      1.0000 0.98397  0.32474  0.37652  Biso   1.000  O
  O43      1.0000 0.98397  0.67526  0.37652  Biso   1.000  O
  O44      1.0000 0.00000  0.00000  0.38207  Biso   1.000  O
  O45      1.0000 0.68034  0.00000  0.44458  Biso   1.000  O
  O46      1.0000 0.69637  0.32474  0.45015  Biso   1.000  O
  O47      1.0000 0.69637  0.67526  0.45015  Biso   1.000  O
  O48      1.0000 0.94636  0.17526  0.46318  Biso   1.000  O
  O49      1.0000 0.94636  0.82474  0.46318  Biso   1.000  O
  O50      1.0000 0.93034  0.50000  0.46873  Biso   1.000  O
  O51      1.0000 0.74999  0.50000  0.53127  Biso   1.000  O
  O52      1.0000 0.73397  0.17526  0.53682  Biso   1.000  O
  O53      1.0000 0.73397  0.82474  0.53682  Biso   1.000  O
  O54      1.0000 0.98362  0.32328  0.54993  Biso   1.000  O
  O55      1.0000 0.98435  0.67339  0.55025  Biso   1.000  O
  O56      1.0000 0.99819  0.99191  0.55548  Biso   1.000  O
  O57      1.0000 0.67937  0.00023  0.61828  Biso   1.000  O
  O58      1.0000 0.69811  0.32363  0.62113  Biso   1.000  O
  O59      1.0000 0.70215  0.67499  0.62138  Biso   1.000  O
  O60      1.0000 0.94340  0.16974  0.63621  Biso   1.000  O
  O61      1.0000 0.95584  0.81454  0.63939  Biso   1.000  O
  O62      1.0000 0.91412  0.49764  0.63937  Biso   1.000  O
  O63      1.0000 0.74999  0.49591  0.70712  Biso   1.000  O
  O64      1.0000 0.72077  0.19123  0.70517  Biso   1.000  O
  O65      1.0000 0.72901  0.80631  0.70531  Biso   1.000  O
  O66      1.0000 0.98757  0.32299  0.71858  Biso   1.000  O
  O67      1.0000 0.98602  0.65857  0.72273  Biso   1.000  O
  Ir1      1.0000 0.34016  0.32466  0.32667  Biso   1.000  Ir
  Ir2      1.0000 0.34016  0.67535  0.32667  Biso   1.000  Ir
  Ir3      1.0000 0.09016  0.17534  0.41333  Biso   1.000  Ir
  Ir4      1.0000 0.09016  0.82466  0.41333  Biso   1.000  Ir
  Ir5      1.0000 0.34016  0.32466  0.50000  Biso   1.000  Ir
  Ir6      1.0000 0.34016  0.67535  0.50000  Biso   1.000  Ir
  Ir7      1.0000 0.08663  0.16800  0.58600  Biso   1.000  Ir
  Ir8      1.0000 0.09333  0.81831  0.58681  Biso   1.000  Ir
  Ir9      1.0000 0.33835  0.33817  0.66953  Biso   1.000  Ir
  Ir10     1.0000 0.34206  0.69589  0.68096  Biso   1.000  Ir
  Ir11     1.0000 0.84017  0.32466  0.32667  Biso   1.000  Ir
  Ir12     1.0000 0.84017  0.67535  0.32667  Biso   1.000  Ir
  Ir13     1.0000 0.59016  0.17534  0.41333  Biso   1.000  Ir
  Ir14     1.0000 0.59016  0.82466  0.41333  Biso   1.000  Ir
  Ir15     1.0000 0.84017  0.32466  0.50000  Biso   1.000  Ir
  Ir16     1.0000 0.84017  0.67535  0.50000  Biso   1.000  Ir
  Ir17     1.0000 0.59008  0.17565  0.58648  Biso   1.000  Ir
  Ir18     1.0000 0.59312  0.82109  0.58709  Biso   1.000  Ir
  Ir19     1.0000 0.84318  0.31852  0.67676  Biso   1.000  Ir
  Ir20     1.0000 0.84842  0.67360  0.67841  Biso   1.000  Ir
