data_image0
_cell_length_a       6.3788
_cell_length_b       6.42053
_cell_length_c       27.8409
_cell_angle_alpha    90
_cell_angle_beta     90
_cell_angle_gamma    90

_symmetry_space_group_name_H-M    "P 1"
_symmetry_int_tables_number       1

loop_
  _symmetry_equiv_pos_as_xyz
  'x, y, z'

loop_
  _atom_site_label
  _atom_site_occupancy
  _atom_site_fract_x
  _atom_site_fract_y
  _atom_site_fract_z
  _atom_site_thermal_displace_type
  _atom_site_B_iso_or_equiv
  _atom_site_type_symbol
  O1       1.0000 0.00000  0.50000  0.26939  Biso   1.000  O
  O2       1.0000 0.25000  0.20000  0.31552  Biso   1.000  O
  O3       1.0000 0.25000  0.80000  0.31552  Biso   1.000  O
  O4       1.0000 0.00000  0.50000  0.36163  Biso   1.000  O
  O5       1.0000 0.00000  0.00000  0.38469  Biso   1.000  O
  O6       1.0000 0.25000  0.30000  0.43081  Biso   1.000  O
  O7       1.0000 0.25000  0.70000  0.43081  Biso   1.000  O
  O8       1.0000 0.00000  0.00000  0.47694  Biso   1.000  O
  O9       1.0000 0.00000  0.50000  0.50000  Biso   1.000  O
  O10      1.0000 0.24991  0.19305  0.54665  Biso   1.000  O
  O11      1.0000 0.25015  0.81003  0.54685  Biso   1.000  O
  O12      1.0000 0.00022  0.50273  0.58943  Biso   1.000  O
  O13      1.0000 0.00070  0.00612  0.61808  Biso   1.000  O
  O14      1.0000 0.24913  0.31431  0.66207  Biso   1.000  O
  O15      1.0000 0.25097  0.69633  0.66069  Biso   1.000  O
  O16      1.0000 0.99989  0.00620  0.70492  Biso   1.000  O
  O17      1.0000 0.98275  0.50456  0.73044  Biso   1.000  O
  O18      1.0000 0.50000  0.50000  0.26939  Biso   1.000  O
  O19      1.0000 0.75000  0.20000  0.31552  Biso   1.000  O
  O20      1.0000 0.75000  0.80000  0.31552  Biso   1.000  O
  O21      1.0000 0.50000  0.50000  0.36163  Biso   1.000  O
  O22      1.0000 0.50000  0.00000  0.38469  Biso   1.000  O
  O23      1.0000 0.75000  0.30000  0.43081  Biso   1.000  O
  O24      1.0000 0.75000  0.70000  0.43081  Biso   1.000  O
  O25      1.0000 0.50000  0.00000  0.47694  Biso   1.000  O
  O26      1.0000 0.50000  0.50000  0.50000  Biso   1.000  O
  O27      1.0000 0.75002  0.19378  0.54658  Biso   1.000  O
  O28      1.0000 0.75009  0.81074  0.54679  Biso   1.000  O
  O29      1.0000 0.49964  0.50147  0.58955  Biso   1.000  O
  O30      1.0000 0.49979  0.00606  0.61815  Biso   1.000  O
  O31      1.0000 0.74901  0.31432  0.65981  Biso   1.000  O
  O32      1.0000 0.75206  0.69885  0.66003  Biso   1.000  O
  O33      1.0000 0.50078  0.00552  0.70495  Biso   1.000  O
  O34      1.0000 0.53094  0.52800  0.73050  Biso   1.000  O
  O35      1.0000 0.37953  0.41253  0.75925  Biso   1.000  O
  Ir1      1.0000 0.00000  0.00000  0.31552  Biso   1.000  Ir
  Ir2      1.0000 0.25000  0.50000  0.31552  Biso   1.000  Ir
  Ir3      1.0000 0.25000  0.00000  0.43081  Biso   1.000  Ir
  Ir4      1.0000 0.00000  0.50000  0.43081  Biso   1.000  Ir
  Ir5      1.0000 0.00007  0.00197  0.54750  Biso   1.000  Ir
  Ir6      1.0000 0.24977  0.50096  0.54502  Biso   1.000  Ir
  Ir7      1.0000 0.25018  0.00611  0.66281  Biso   1.000  Ir
  Ir8      1.0000 0.99977  0.50602  0.66147  Biso   1.000  Ir
  Ir9      1.0000 0.50000  0.00000  0.31552  Biso   1.000  Ir
  Ir10     1.0000 0.75000  0.50000  0.31552  Biso   1.000  Ir
  Ir11     1.0000 0.75000  0.00000  0.43081  Biso   1.000  Ir
  Ir12     1.0000 0.50000  0.50000  0.43081  Biso   1.000  Ir
  Ir13     1.0000 0.50003  0.00210  0.54752  Biso   1.000  Ir
  Ir14     1.0000 0.75017  0.50244  0.54505  Biso   1.000  Ir
  Ir15     1.0000 0.75026  0.00588  0.66258  Biso   1.000  Ir
  Ir16     1.0000 0.50077  0.50631  0.66167  Biso   1.000  Ir
  H1       1.0000 0.43764  0.44156  0.79117  Biso   1.000  H
  H2       1.0000 0.12407  0.48112  0.74432  Biso   1.000  H
