data_image0
_cell_length_a       7.0938
_cell_length_b       7.0938
_cell_length_c       28.1891
_cell_angle_alpha    90
_cell_angle_beta     90
_cell_angle_gamma    92.9993

_symmetry_space_group_name_H-M    "P 1"
_symmetry_int_tables_number       1

loop_
  _symmetry_equiv_pos_as_xyz
  'x, y, z'

loop_
  _atom_site_label
  _atom_site_occupancy
  _atom_site_fract_x
  _atom_site_fract_y
  _atom_site_fract_z
  _atom_site_thermal_displace_type
  _atom_site_B_iso_or_equiv
  _atom_site_type_symbol
  Ir1      1.0000 0.49127  0.32803  0.28543  Biso   1.000  Ir
  Ir2      1.0000 0.99127  0.82803  0.28543  Biso   1.000  Ir
  Ir3      1.0000 0.01614  0.30317  0.41092  Biso   1.000  Ir
  Ir4      1.0000 0.51614  0.80317  0.41092  Biso   1.000  Ir
  Ir5      1.0000 0.03794  0.77795  0.53656  Biso   1.000  Ir
  Ir6      1.0000 0.54066  0.27937  0.53656  Biso   1.000  Ir
  Ir7      1.0000 0.06490  0.24917  0.66294  Biso   1.000  Ir
  Ir8      1.0000 0.56101  0.75058  0.66269  Biso   1.000  Ir
  Ir9      1.0000 0.49127  0.82803  0.28543  Biso   1.000  Ir
  Ir10     1.0000 0.99127  0.32803  0.28543  Biso   1.000  Ir
  Ir11     1.0000 0.01614  0.80317  0.41092  Biso   1.000  Ir
  Ir12     1.0000 0.51614  0.30317  0.41092  Biso   1.000  Ir
  Ir13     1.0000 0.04068  0.27945  0.53631  Biso   1.000  Ir
  Ir14     1.0000 0.53944  0.77952  0.53662  Biso   1.000  Ir
  Ir15     1.0000 0.05795  0.74959  0.66284  Biso   1.000  Ir
  Ir16     1.0000 0.55984  0.24444  0.66329  Biso   1.000  Ir
  O1       1.0000 0.42655  0.23844  0.34818  Biso   1.000  O
  O2       1.0000 0.92655  0.73844  0.34818  Biso   1.000  O
  O3       1.0000 0.45141  0.71358  0.47367  Biso   1.000  O
  O4       1.0000 0.95141  0.21358  0.47367  Biso   1.000  O
  O5       1.0000 0.47967  0.19023  0.59969  Biso   1.000  O
  O6       1.0000 0.97000  0.69317  0.59924  Biso   1.000  O
  O7       1.0000 0.02042  0.17026  0.72893  Biso   1.000  O
  O8       1.0000 0.48244  0.68026  0.72797  Biso   1.000  O
  O9       1.0000 0.23744  0.25472  0.26607  Biso   1.000  O
  O10      1.0000 0.73744  0.75472  0.26607  Biso   1.000  O
  O11      1.0000 0.26230  0.72986  0.39156  Biso   1.000  O
  O12      1.0000 0.76230  0.22986  0.39156  Biso   1.000  O
  O13      1.0000 0.28638  0.20423  0.51730  Biso   1.000  O
  O14      1.0000 0.78519  0.70456  0.51647  Biso   1.000  O
  O15      1.0000 0.30629  0.67719  0.64319  Biso   1.000  O
  O16      1.0000 0.81017  0.17341  0.64631  Biso   1.000  O
  O17      1.0000 0.24511  0.90135  0.30479  Biso   1.000  O
  O18      1.0000 0.74511  0.40135  0.30479  Biso   1.000  O
  O19      1.0000 0.26997  0.37649  0.43029  Biso   1.000  O
  O20      1.0000 0.76997  0.87649  0.43029  Biso   1.000  O
  O21      1.0000 0.29204  0.85459  0.55597  Biso   1.000  O
  O22      1.0000 0.79358  0.35666  0.55578  Biso   1.000  O
  O23      1.0000 0.31803  0.33262  0.68213  Biso   1.000  O
  O24      1.0000 0.81263  0.82982  0.68330  Biso   1.000  O
  O25      1.0000 0.08085  0.39274  0.34818  Biso   1.000  O
  O26      1.0000 0.58085  0.89274  0.34818  Biso   1.000  O
  O27      1.0000 0.10571  0.86788  0.47367  Biso   1.000  O
  O28      1.0000 0.60571  0.36788  0.47367  Biso   1.000  O
  O29      1.0000 0.12106  0.33859  0.59980  Biso   1.000  O
  O30      1.0000 0.62607  0.83801  0.60008  Biso   1.000  O
  O31      1.0000 0.13361  0.81637  0.72810  Biso   1.000  O
  O32      1.0000 0.63301  0.24276  0.73166  Biso   1.000  O
  O33      1.0000 0.06459  0.58187  0.26606  Biso   1.000  O
  O34      1.0000 0.56459  0.08187  0.26606  Biso   1.000  O
  O35      1.0000 0.08945  0.05701  0.39155  Biso   1.000  O
  O36      1.0000 0.58945  0.55701  0.39155  Biso   1.000  O
  O37      1.0000 0.11423  0.53324  0.51671  Biso   1.000  O
  O38      1.0000 0.61456  0.03267  0.51746  Biso   1.000  O
  O39      1.0000 0.13800  0.00253  0.64374  Biso   1.000  O
  O40      1.0000 0.63756  0.50333  0.64969  Biso   1.000  O
  O41      1.0000 0.41796  0.57419  0.30479  Biso   1.000  O
  O42      1.0000 0.91796  0.07419  0.30479  Biso   1.000  O
  O43      1.0000 0.44283  0.04933  0.43029  Biso   1.000  O
  O44      1.0000 0.94283  0.54933  0.43029  Biso   1.000  O
  O45      1.0000 0.46324  0.52547  0.55596  Biso   1.000  O
  O46      1.0000 0.96263  0.02519  0.55521  Biso   1.000  O
  O47      1.0000 0.47408  0.99187  0.68181  Biso   1.000  O
  O48      1.0000 0.98846  0.49694  0.68132  Biso   1.000  O
  O49      1.0000 0.75592  0.38347  0.74971  Biso   1.000  O
  H1       1.0000 0.05840  0.03734  0.73492  Biso   1.000  H
  H2       1.0000 0.42415  0.55120  0.72692  Biso   1.000  H
  H3       1.0000 0.27226  0.80110  0.73240  Biso   1.000  H
  H4       1.0000 0.87242  0.30504  0.75427  Biso   1.000  H
