data_image0
_cell_length_a       4.88305
_cell_length_b       5.1456
_cell_length_c       46.8392
_cell_angle_alpha    90
_cell_angle_beta     90
_cell_angle_gamma    90

_symmetry_space_group_name_H-M    "P 1"
_symmetry_int_tables_number       1

loop_
  _symmetry_equiv_pos_as_xyz
  'x, y, z'

loop_
  _atom_site_label
  _atom_site_occupancy
  _atom_site_fract_x
  _atom_site_fract_y
  _atom_site_fract_z
  _atom_site_thermal_displace_type
  _atom_site_B_iso_or_equiv
  _atom_site_type_symbol
  O1       1.0000 0.80860  0.09667  0.16012  Biso   1.000  O
  O2       1.0000 0.00000  0.59667  0.16012  Biso   1.000  O
  O3       1.0000 0.48147  0.75233  0.18624  Biso   1.000  O
  O4       1.0000 0.32717  0.25234  0.18624  Biso   1.000  O
  Ir1      1.0000 0.65431  0.07181  0.19789  Biso   1.000  Ir
  Ir2      1.0000 0.15431  0.57181  0.19789  Biso   1.000  Ir
  O5       1.0000 0.82717  0.39129  0.20954  Biso   1.000  O
  O6       1.0000 0.98147  0.89129  0.20955  Biso   1.000  O
  O7       1.0000 0.50000  0.04695  0.23565  Biso   1.000  O
  O8       1.0000 0.30860  0.54695  0.23565  Biso   1.000  O
  O9       1.0000 0.98147  0.20261  0.26177  Biso   1.000  O
  O10      1.0000 0.82717  0.70262  0.26177  Biso   1.000  O
  Ir3      1.0000 0.65431  0.02209  0.27342  Biso   1.000  Ir
  Ir4      1.0000 0.15431  0.52209  0.27342  Biso   1.000  Ir
  O11      1.0000 0.32716  0.84156  0.28507  Biso   1.000  O
  O12      1.0000 0.48147  0.34157  0.28507  Biso   1.000  O
  O13      1.0000 0.00000  0.49723  0.31118  Biso   1.000  O
  O14      1.0000 0.80860  0.99723  0.31118  Biso   1.000  O
  O15      1.0000 0.48147  0.65288  0.33729  Biso   1.000  O
  O16      1.0000 0.32717  0.15289  0.33729  Biso   1.000  O
  Ir5      1.0000 0.15431  0.47237  0.34895  Biso   1.000  Ir
  Ir6      1.0000 0.65431  0.97237  0.34895  Biso   1.000  Ir
  O17      1.0000 0.82717  0.29184  0.36060  Biso   1.000  O
  O18      1.0000 0.98147  0.79185  0.36060  Biso   1.000  O
  O19      1.0000 0.30860  0.44751  0.38670  Biso   1.000  O
  O20      1.0000 0.50000  0.94751  0.38670  Biso   1.000  O
  O21      1.0000 0.98147  0.10316  0.41282  Biso   1.000  O
  O22      1.0000 0.82717  0.60317  0.41282  Biso   1.000  O
  Ir7      1.0000 0.15431  0.42264  0.42447  Biso   1.000  Ir
  Ir8      1.0000 0.65431  0.92264  0.42447  Biso   1.000  Ir
  O23      1.0000 0.32716  0.74212  0.43613  Biso   1.000  O
  O24      1.0000 0.48147  0.24213  0.43613  Biso   1.000  O
  O25      1.0000 0.00000  0.39778  0.46223  Biso   1.000  O
  O26      1.0000 0.80860  0.89778  0.46223  Biso   1.000  O
  O27      1.0000 0.48147  0.55344  0.48835  Biso   1.000  O
  O28      1.0000 0.32716  0.05345  0.48835  Biso   1.000  O
  Ir9      1.0000 0.15431  0.37292  0.50000  Biso   1.000  Ir
  Ir10     1.0000 0.65431  0.87292  0.50000  Biso   1.000  Ir
  O29      1.0000 0.82716  0.19239  0.51165  Biso   1.000  O
  O30      1.0000 0.98147  0.69240  0.51165  Biso   1.000  O
  O31      1.0000 0.30860  0.34806  0.53777  Biso   1.000  O
  O32      1.0000 0.50000  0.84806  0.53777  Biso   1.000  O
  O33      1.0000 0.98147  0.00372  0.56387  Biso   1.000  O
  O34      1.0000 0.82717  0.50373  0.56388  Biso   1.000  O
  Ir11     1.0000 0.15431  0.32320  0.57553  Biso   1.000  Ir
  Ir12     1.0000 0.65431  0.82320  0.57553  Biso   1.000  Ir
  O35      1.0000 0.32716  0.64267  0.58718  Biso   1.000  O
  O36      1.0000 0.48147  0.14268  0.58718  Biso   1.000  O
  O37      1.0000 0.00000  0.29834  0.61330  Biso   1.000  O
  O38      1.0000 0.80860  0.79834  0.61330  Biso   1.000  O
  O39      1.0000 0.48146  0.45399  0.63940  Biso   1.000  O
  O40      1.0000 0.32717  0.95400  0.63940  Biso   1.000  O
  Ir13     1.0000 0.15431  0.27348  0.65105  Biso   1.000  Ir
  Ir14     1.0000 0.65431  0.77348  0.65105  Biso   1.000  Ir
  O41      1.0000 0.82716  0.09295  0.66271  Biso   1.000  O
  O42      1.0000 0.98147  0.59296  0.66271  Biso   1.000  O
  O43      1.0000 0.30860  0.24861  0.68882  Biso   1.000  O
  O44      1.0000 0.50000  0.74861  0.68882  Biso   1.000  O
  O45      1.0000 0.98147  0.90427  0.71493  Biso   1.000  O
  O46      1.0000 0.82716  0.40428  0.71493  Biso   1.000  O
  Ir15     1.0000 0.15431  0.22375  0.72658  Biso   1.000  Ir
  Ir16     1.0000 0.65431  0.72375  0.72658  Biso   1.000  Ir
  O47      1.0000 0.32717  0.54323  0.73823  Biso   1.000  O
  O48      1.0000 0.48146  0.04324  0.73824  Biso   1.000  O
  O49      1.0000 0.00000  0.19889  0.76435  Biso   1.000  O
  O50      1.0000 0.80860  0.69889  0.76435  Biso   1.000  O
  O51      1.0000 0.48147  0.35455  0.79046  Biso   1.000  O
  O52      1.0000 0.32717  0.85456  0.79046  Biso   1.000  O
  Ir17     1.0000 0.15431  0.17403  0.80211  Biso   1.000  Ir
  Ir18     1.0000 0.65431  0.67403  0.80211  Biso   1.000  Ir
  O53      1.0000 0.82717  0.99350  0.81376  Biso   1.000  O
  O54      1.0000 0.98147  0.49351  0.81376  Biso   1.000  O
  O55      1.0000 0.30860  0.14917  0.83988  Biso   1.000  O
  O56      1.0000 0.50000  0.64917  0.83988  Biso   1.000  O
