data_image0
_cell_length_a       4.88305
_cell_length_b       5.1456
_cell_length_c       50.3764
_cell_angle_alpha    90
_cell_angle_beta     90
_cell_angle_gamma    90

_symmetry_space_group_name_H-M    "P 1"
_symmetry_int_tables_number       1

loop_
  _symmetry_equiv_pos_as_xyz
  'x, y, z'

loop_
  _atom_site_label
  _atom_site_occupancy
  _atom_site_fract_x
  _atom_site_fract_y
  _atom_site_fract_z
  _atom_site_thermal_displace_type
  _atom_site_B_iso_or_equiv
  _atom_site_type_symbol
  O1       1.0000 0.80860  0.09667  0.14888  Biso   1.000  O
  O2       1.0000 0.00000  0.59667  0.14888  Biso   1.000  O
  O3       1.0000 0.48147  0.75233  0.17316  Biso   1.000  O
  O4       1.0000 0.32717  0.25234  0.17316  Biso   1.000  O
  Ir1      1.0000 0.65431  0.07181  0.18399  Biso   1.000  Ir
  Ir2      1.0000 0.15431  0.57181  0.18399  Biso   1.000  Ir
  O5       1.0000 0.82717  0.39129  0.19483  Biso   1.000  O
  O6       1.0000 0.98147  0.89129  0.19484  Biso   1.000  O
  O7       1.0000 0.50000  0.04695  0.21911  Biso   1.000  O
  O8       1.0000 0.30860  0.54695  0.21911  Biso   1.000  O
  O9       1.0000 0.98147  0.20261  0.24339  Biso   1.000  O
  O10      1.0000 0.82717  0.70262  0.24339  Biso   1.000  O
  Ir3      1.0000 0.65431  0.02209  0.25422  Biso   1.000  Ir
  Ir4      1.0000 0.15431  0.52209  0.25422  Biso   1.000  Ir
  O11      1.0000 0.32716  0.84156  0.26505  Biso   1.000  O
  O12      1.0000 0.48147  0.34157  0.26505  Biso   1.000  O
  O13      1.0000 0.00000  0.49723  0.28933  Biso   1.000  O
  O14      1.0000 0.80860  0.99723  0.28933  Biso   1.000  O
  O15      1.0000 0.48147  0.65288  0.31360  Biso   1.000  O
  O16      1.0000 0.32717  0.15289  0.31360  Biso   1.000  O
  Ir5      1.0000 0.15431  0.47237  0.32445  Biso   1.000  Ir
  Ir6      1.0000 0.65431  0.97237  0.32445  Biso   1.000  Ir
  O17      1.0000 0.82717  0.29184  0.33528  Biso   1.000  O
  O18      1.0000 0.98147  0.79185  0.33528  Biso   1.000  O
  O19      1.0000 0.30860  0.44751  0.35955  Biso   1.000  O
  O20      1.0000 0.50000  0.94751  0.35955  Biso   1.000  O
  O21      1.0000 0.98147  0.10316  0.38383  Biso   1.000  O
  O22      1.0000 0.82717  0.60317  0.38383  Biso   1.000  O
  Ir7      1.0000 0.15431  0.42264  0.39466  Biso   1.000  Ir
  Ir8      1.0000 0.65431  0.92264  0.39466  Biso   1.000  Ir
  O23      1.0000 0.32716  0.74212  0.40551  Biso   1.000  O
  O24      1.0000 0.48147  0.24213  0.40551  Biso   1.000  O
  O25      1.0000 0.00000  0.39778  0.42978  Biso   1.000  O
  O26      1.0000 0.80860  0.89778  0.42978  Biso   1.000  O
  O27      1.0000 0.48147  0.55344  0.45406  Biso   1.000  O
  O28      1.0000 0.32716  0.05345  0.45406  Biso   1.000  O
  Ir9      1.0000 0.15431  0.37292  0.46489  Biso   1.000  Ir
  Ir10     1.0000 0.65431  0.87292  0.46489  Biso   1.000  Ir
  O29      1.0000 0.82716  0.19239  0.47572  Biso   1.000  O
  O30      1.0000 0.98147  0.69240  0.47572  Biso   1.000  O
  O31      1.0000 0.30860  0.34806  0.50001  Biso   1.000  O
  O32      1.0000 0.50000  0.84806  0.50001  Biso   1.000  O
  O33      1.0000 0.98147  0.00372  0.52428  Biso   1.000  O
  O34      1.0000 0.82717  0.50373  0.52429  Biso   1.000  O
  Ir11     1.0000 0.15431  0.32320  0.53512  Biso   1.000  Ir
  Ir12     1.0000 0.65431  0.82320  0.53512  Biso   1.000  Ir
  O35      1.0000 0.32716  0.64267  0.54595  Biso   1.000  O
  O36      1.0000 0.48147  0.14268  0.54595  Biso   1.000  O
  O37      1.0000 0.00000  0.29834  0.57023  Biso   1.000  O
  O38      1.0000 0.80860  0.79834  0.57023  Biso   1.000  O
  O39      1.0000 0.48146  0.45399  0.59450  Biso   1.000  O
  O40      1.0000 0.32717  0.95400  0.59450  Biso   1.000  O
  Ir13     1.0000 0.15431  0.27348  0.60534  Biso   1.000  Ir
  Ir14     1.0000 0.65431  0.77348  0.60534  Biso   1.000  Ir
  O41      1.0000 0.82716  0.09295  0.61618  Biso   1.000  O
  O42      1.0000 0.98147  0.59296  0.61618  Biso   1.000  O
  O43      1.0000 0.30860  0.24861  0.64045  Biso   1.000  O
  O44      1.0000 0.50000  0.74861  0.64045  Biso   1.000  O
  O45      1.0000 0.98147  0.90427  0.66473  Biso   1.000  O
  O46      1.0000 0.82716  0.40428  0.66473  Biso   1.000  O
  Ir15     1.0000 0.15431  0.22375  0.67556  Biso   1.000  Ir
  Ir16     1.0000 0.65431  0.72375  0.67556  Biso   1.000  Ir
  O47      1.0000 0.32717  0.54323  0.68640  Biso   1.000  O
  O48      1.0000 0.48146  0.04324  0.68641  Biso   1.000  O
  O49      1.0000 0.00000  0.19889  0.71068  Biso   1.000  O
  O50      1.0000 0.80860  0.69889  0.71068  Biso   1.000  O
  O51      1.0000 0.48147  0.35455  0.73496  Biso   1.000  O
  O52      1.0000 0.32717  0.85456  0.73496  Biso   1.000  O
  Ir17     1.0000 0.15431  0.17403  0.74579  Biso   1.000  Ir
  Ir18     1.0000 0.65431  0.67403  0.74579  Biso   1.000  Ir
  O53      1.0000 0.82717  0.99350  0.75662  Biso   1.000  O
  O54      1.0000 0.98147  0.49351  0.75662  Biso   1.000  O
  O55      1.0000 0.30860  0.14917  0.78090  Biso   1.000  O
  O56      1.0000 0.50000  0.64917  0.78090  Biso   1.000  O
  O57      1.0000 0.98147  0.80482  0.80517  Biso   1.000  O
  O58      1.0000 0.82717  0.30483  0.80517  Biso   1.000  O
  Ir19     1.0000 0.15431  0.12431  0.81602  Biso   1.000  Ir
  Ir20     1.0000 0.65431  0.62431  0.81602  Biso   1.000  Ir
  O59      1.0000 0.32716  0.44378  0.82685  Biso   1.000  O
  O60      1.0000 0.48147  0.94379  0.82685  Biso   1.000  O
  O61      1.0000 0.00000  0.09945  0.85112  Biso   1.000  O
  O62      1.0000 0.80860  0.59945  0.85112  Biso   1.000  O
