data_image0
_cell_length_a       8.04834
_cell_length_b       8.04834
_cell_length_c       34.6897
_cell_angle_alpha    90
_cell_angle_beta     90
_cell_angle_gamma    90

_symmetry_space_group_name_H-M    "P 1"
_symmetry_int_tables_number       1

loop_
  _symmetry_equiv_pos_as_xyz
  'x, y, z'

loop_
  _atom_site_label
  _atom_site_occupancy
  _atom_site_fract_x
  _atom_site_fract_y
  _atom_site_fract_z
  _atom_site_thermal_displace_type
  _atom_site_B_iso_or_equiv
  _atom_site_type_symbol
  Sr1      1.0000 0.99971  0.98289  0.29950  Biso   1.000  Sr
  Ir1      1.0000 0.24943  0.24940  0.35195  Biso   1.000  Ir
  O1       1.0000 0.20802  0.20725  0.29388  Biso   1.000  O
  O2       1.0000 0.99926  0.30030  0.35852  Biso   1.000  O
  O3       1.0000 0.20782  0.99943  0.36180  Biso   1.000  O
  Sr2      1.0000 0.49976  0.01717  0.28827  Biso   1.000  Sr
  Ir2      1.0000 0.74931  0.24935  0.35190  Biso   1.000  Ir
  O4       1.0000 0.78962  0.20545  0.29385  Biso   1.000  O
  O5       1.0000 0.49931  0.19836  0.34530  Biso   1.000  O
  O6       1.0000 0.79030  0.99927  0.36206  Biso   1.000  O
  Sr3      1.0000 0.99975  0.47550  0.29774  Biso   1.000  Sr
  Ir3      1.0000 0.24927  0.74963  0.35190  Biso   1.000  Ir
  O7       1.0000 0.29139  0.79193  0.29390  Biso   1.000  O
  O8       1.0000 0.99929  0.72036  0.34011  Biso   1.000  O
  O9       1.0000 0.29118  0.49943  0.34217  Biso   1.000  O
  Sr4      1.0000 0.49956  0.52375  0.29008  Biso   1.000  Sr
  Ir4      1.0000 0.74948  0.74962  0.35189  Biso   1.000  Ir
  O10      1.0000 0.70823  0.79286  0.29386  Biso   1.000  O
  O11      1.0000 0.49932  0.77842  0.36372  Biso   1.000  O
  O12      1.0000 0.70873  0.49931  0.34179  Biso   1.000  O
  Ir5      1.0000 0.26052  0.21768  0.45840  Biso   1.000  Ir
  O13      1.0000 0.30383  0.99791  0.44798  Biso   1.000  O
  O14      1.0000 0.45160  0.31105  0.47273  Biso   1.000  O
  O15      1.0000 0.28119  0.28149  0.40596  Biso   1.000  O
  Ir6      1.0000 0.25782  0.22776  0.56504  Biso   1.000  Ir
  O16      1.0000 0.27722  0.01001  0.57835  Biso   1.000  O
  O17      1.0000 0.19525  0.18023  0.51059  Biso   1.000  O
  Ir7      1.0000 0.19733  0.29295  0.66543  Biso   1.000  Ir
  O18      1.0000 0.31972  0.29896  0.61838  Biso   1.000  O
  O19      1.0000 0.39175  0.94836  0.64497  Biso   1.000  O
  O20      1.0000 0.26158  0.16606  0.70319  Biso   1.000  O
  Ir8      1.0000 0.23015  0.70117  0.45945  Biso   1.000  Ir
  O21      1.0000 0.14777  0.48683  0.46551  Biso   1.000  O
  O22      1.0000 0.44894  0.65355  0.46711  Biso   1.000  O
  O23      1.0000 0.23384  0.69851  0.40543  Biso   1.000  O
  Ir9      1.0000 0.29271  0.70123  0.56105  Biso   1.000  Ir
  O24      1.0000 0.26455  0.48476  0.54548  Biso   1.000  O
  O25      1.0000 0.19741  0.77932  0.50990  Biso   1.000  O
  Ir10     1.0000 0.30228  0.75188  0.65544  Biso   1.000  Ir
  O26      1.0000 0.38223  0.63376  0.61159  Biso   1.000  O
  O27      1.0000 0.20071  0.51415  0.67577  Biso   1.000  O
  O28      1.0000 0.17626  0.81731  0.70117  Biso   1.000  O
  Ir11     1.0000 0.81316  0.28924  0.45772  Biso   1.000  Ir
  O29      1.0000 0.67796  0.94996  0.45419  Biso   1.000  O
  O30      1.0000 0.00538  0.17127  0.44896  Biso   1.000  O
  O31      1.0000 0.74424  0.29846  0.40727  Biso   1.000  O
  Ir12     1.0000 0.73337  0.26252  0.56384  Biso   1.000  Ir
  O32      1.0000 0.76335  0.00801  0.56855  Biso   1.000  O
  O33      1.0000 0.80175  0.24640  0.51033  Biso   1.000  O
  Ir13     1.0000 0.75060  0.24296  0.67096  Biso   1.000  Ir
  O34      1.0000 0.68708  0.26227  0.61757  Biso   1.000  O
  O35      1.0000 0.71888  0.02074  0.66937  Biso   1.000  O
  O36      1.0000 0.88212  0.25531  0.71209  Biso   1.000  O
  Ir14     1.0000 0.77498  0.75151  0.45764  Biso   1.000  Ir
  O37      1.0000 0.76397  0.51449  0.46889  Biso   1.000  O
  O38      1.0000 0.00022  0.80049  0.44877  Biso   1.000  O
  O39      1.0000 0.75094  0.68743  0.40552  Biso   1.000  O
  Ir15     1.0000 0.72998  0.76777  0.56301  Biso   1.000  Ir
  O40      1.0000 0.75129  0.50918  0.56347  Biso   1.000  O
  O41      1.0000 0.82069  0.77317  0.51325  Biso   1.000  O
  Ir16     1.0000 0.72892  0.70662  0.67036  Biso   1.000  Ir
  O42      1.0000 0.68906  0.74967  0.61830  Biso   1.000  O
  O43      1.0000 0.81928  0.50075  0.66046  Biso   1.000  O
  O44      1.0000 0.82794  0.76643  0.71301  Biso   1.000  O
  O45      1.0000 0.56095  0.32198  0.69024  Biso   1.000  O
  O46      1.0000 0.50288  0.67901  0.68524  Biso   1.000  O
  O47      1.0000 0.00360  0.22671  0.64239  Biso   1.000  O
  O48      1.0000 0.08708  0.77621  0.62790  Biso   1.000  O
  O49      1.0000 0.49687  0.24416  0.54865  Biso   1.000  O
  O50      1.0000 0.49962  0.77987  0.54345  Biso   1.000  O
  O51      1.0000 0.03512  0.27290  0.57520  Biso   1.000  O
  O52      1.0000 0.08494  0.75735  0.58746  Biso   1.000  O
  O53      1.0000 0.24461  0.77580  0.73755  Biso   1.000  O
  H1       1.0000 0.14164  0.75927  0.75222  Biso   1.000  H
