data_image0
_cell_length_a       4.54
_cell_length_b       3.1894
_cell_length_c       42.332
_cell_angle_alpha    90
_cell_angle_beta     90
_cell_angle_gamma    90

_symmetry_space_group_name_H-M    "P 1"
_symmetry_int_tables_number       1

loop_
  _symmetry_equiv_pos_as_xyz
  'x, y, z'

loop_
  _atom_site_label
  _atom_site_occupancy
  _atom_site_fract_x
  _atom_site_fract_y
  _atom_site_fract_z
  _atom_site_thermal_displace_type
  _atom_site_B_iso_or_equiv
  _atom_site_type_symbol
  Ir1      1.0000 0.00000  0.00000  0.18898  Biso   1.000  Ir
  Ir2      1.0000 0.50000  0.50000  0.24261  Biso   1.000  Ir
  O1       1.0000 0.30000  0.00000  0.22116  Biso   1.000  O
  O2       1.0000 0.20000  0.50000  0.27478  Biso   1.000  O
  O3       1.0000 0.80000  0.50000  0.21043  Biso   1.000  O
  O4       1.0000 0.70000  0.00000  0.26406  Biso   1.000  O
  Ir3      1.0000 0.00000  0.00000  0.29623  Biso   1.000  Ir
  Ir4      1.0000 0.50000  0.50000  0.34985  Biso   1.000  Ir
  O5       1.0000 0.30000  0.00000  0.32840  Biso   1.000  O
  O6       1.0000 0.20000  0.50000  0.38203  Biso   1.000  O
  O7       1.0000 0.80000  0.50000  0.31768  Biso   1.000  O
  O8       1.0000 0.70000  0.00000  0.37130  Biso   1.000  O
  Ir5      1.0000 0.00000  0.00000  0.40348  Biso   1.000  Ir
  Ir6      1.0000 0.50000  0.50000  0.45710  Biso   1.000  Ir
  O9       1.0000 0.30000  0.00000  0.43565  Biso   1.000  O
  O10      1.0000 0.20000  0.50000  0.48928  Biso   1.000  O
  O11      1.0000 0.80000  0.50000  0.42493  Biso   1.000  O
  O12      1.0000 0.70000  0.00000  0.47855  Biso   1.000  O
  Ir7      1.0000 0.00000  0.00000  0.51072  Biso   1.000  Ir
  Ir8      1.0000 0.50000  0.50000  0.56435  Biso   1.000  Ir
  O13      1.0000 0.30000  0.00000  0.54290  Biso   1.000  O
  O14      1.0000 0.20000  0.50000  0.59652  Biso   1.000  O
  O15      1.0000 0.80000  0.50000  0.53217  Biso   1.000  O
  O16      1.0000 0.70000  0.00000  0.58580  Biso   1.000  O
  Ir9      1.0000 0.00000  0.00000  0.61797  Biso   1.000  Ir
  Ir10     1.0000 0.50000  0.50000  0.67160  Biso   1.000  Ir
  O17      1.0000 0.30000  0.00000  0.65015  Biso   1.000  O
  O18      1.0000 0.20000  0.50000  0.70377  Biso   1.000  O
  O19      1.0000 0.80000  0.50000  0.63942  Biso   1.000  O
  O20      1.0000 0.70000  0.00000  0.69305  Biso   1.000  O
  Ir11     1.0000 0.00000  0.00000  0.72522  Biso   1.000  Ir
  Ir12     1.0000 0.50000  0.50000  0.77884  Biso   1.000  Ir
  O21      1.0000 0.30000  0.00000  0.75739  Biso   1.000  O
  O22      1.0000 0.20000  0.50000  0.81102  Biso   1.000  O
  O23      1.0000 0.80000  0.50000  0.74667  Biso   1.000  O
  O24      1.0000 0.70000  0.00000  0.80029  Biso   1.000  O
