data_image0
_cell_length_a       9.08
_cell_length_b       9.5682
_cell_length_c       42.332
_cell_angle_alpha    90
_cell_angle_beta     90
_cell_angle_gamma    90

_symmetry_space_group_name_H-M    "P 1"
_symmetry_int_tables_number       1

loop_
  _symmetry_equiv_pos_as_xyz
  'x, y, z'

loop_
  _atom_site_label
  _atom_site_occupancy
  _atom_site_fract_x
  _atom_site_fract_y
  _atom_site_fract_z
  _atom_site_thermal_displace_type
  _atom_site_B_iso_or_equiv
  _atom_site_type_symbol
  Ir1      1.0000 0.00000  0.00000  0.18898  Biso   1.000  Ir
  Ir2      1.0000 0.25000  0.16667  0.24261  Biso   1.000  Ir
  O1       1.0000 0.15000  0.00000  0.22116  Biso   1.000  O
  O2       1.0000 0.10000  0.16667  0.27478  Biso   1.000  O
  O3       1.0000 0.40000  0.16667  0.21043  Biso   1.000  O
  O4       1.0000 0.35000  0.00000  0.26406  Biso   1.000  O
  Ir3      1.0000 0.00000  0.00000  0.29623  Biso   1.000  Ir
  Ir4      1.0000 0.25000  0.16667  0.34985  Biso   1.000  Ir
  O5       1.0000 0.15000  0.00000  0.32840  Biso   1.000  O
  O6       1.0000 0.10000  0.16667  0.38203  Biso   1.000  O
  O7       1.0000 0.40000  0.16667  0.31768  Biso   1.000  O
  O8       1.0000 0.35000  0.00000  0.37130  Biso   1.000  O
  Ir5      1.0000 0.00000  0.00000  0.40348  Biso   1.000  Ir
  Ir6      1.0000 0.25000  0.16667  0.45710  Biso   1.000  Ir
  O9       1.0000 0.15000  0.00000  0.43565  Biso   1.000  O
  O10      1.0000 0.10000  0.16667  0.48928  Biso   1.000  O
  O11      1.0000 0.40000  0.16667  0.42493  Biso   1.000  O
  O12      1.0000 0.35000  0.00000  0.47855  Biso   1.000  O
  Ir7      1.0000 0.00000  0.00000  0.51072  Biso   1.000  Ir
  Ir8      1.0000 0.25000  0.16667  0.56435  Biso   1.000  Ir
  O13      1.0000 0.15000  0.00000  0.54290  Biso   1.000  O
  O14      1.0000 0.10000  0.16667  0.59652  Biso   1.000  O
  O15      1.0000 0.40000  0.16667  0.53217  Biso   1.000  O
  O16      1.0000 0.35000  0.00000  0.58580  Biso   1.000  O
  Ir9      1.0000 0.00000  0.00000  0.61797  Biso   1.000  Ir
  Ir10     1.0000 0.25000  0.16667  0.67160  Biso   1.000  Ir
  O17      1.0000 0.15000  0.00000  0.65015  Biso   1.000  O
  O18      1.0000 0.10000  0.16667  0.70377  Biso   1.000  O
  O19      1.0000 0.40000  0.16667  0.63942  Biso   1.000  O
  O20      1.0000 0.35000  0.00000  0.69305  Biso   1.000  O
  Ir11     1.0000 0.00000  0.00000  0.72522  Biso   1.000  Ir
  Ir12     1.0000 0.25000  0.16667  0.77884  Biso   1.000  Ir
  O21      1.0000 0.15000  0.00000  0.75739  Biso   1.000  O
  O22      1.0000 0.10000  0.16667  0.81102  Biso   1.000  O
  O23      1.0000 0.40000  0.16667  0.74667  Biso   1.000  O
  O24      1.0000 0.35000  0.00000  0.80029  Biso   1.000  O
  Ir13     1.0000 0.00000  0.33333  0.18898  Biso   1.000  Ir
  Ir14     1.0000 0.25000  0.50000  0.24261  Biso   1.000  Ir
  O25      1.0000 0.15000  0.33333  0.22116  Biso   1.000  O
  O26      1.0000 0.10000  0.50000  0.27478  Biso   1.000  O
  O27      1.0000 0.40000  0.50000  0.21043  Biso   1.000  O
  O28      1.0000 0.35000  0.33333  0.26406  Biso   1.000  O
  Ir15     1.0000 0.00000  0.33333  0.29623  Biso   1.000  Ir
  Ir16     1.0000 0.25000  0.50000  0.34985  Biso   1.000  Ir
  O29      1.0000 0.15000  0.33333  0.32840  Biso   1.000  O
  O30      1.0000 0.10000  0.50000  0.38203  Biso   1.000  O
  O31      1.0000 0.40000  0.50000  0.31768  Biso   1.000  O
  O32      1.0000 0.35000  0.33333  0.37130  Biso   1.000  O
  Ir17     1.0000 0.00000  0.33333  0.40348  Biso   1.000  Ir
  Ir18     1.0000 0.25000  0.50000  0.45710  Biso   1.000  Ir
  O33      1.0000 0.15000  0.33333  0.43565  Biso   1.000  O
  O34      1.0000 0.10000  0.50000  0.48928  Biso   1.000  O
  O35      1.0000 0.40000  0.50000  0.42493  Biso   1.000  O
  O36      1.0000 0.35000  0.33333  0.47855  Biso   1.000  O
  Ir19     1.0000 0.00000  0.33333  0.51072  Biso   1.000  Ir
  Ir20     1.0000 0.25000  0.50000  0.56435  Biso   1.000  Ir
  O37      1.0000 0.15000  0.33333  0.54290  Biso   1.000  O
  O38      1.0000 0.10000  0.50000  0.59652  Biso   1.000  O
  O39      1.0000 0.40000  0.50000  0.53217  Biso   1.000  O
  O40      1.0000 0.35000  0.33333  0.58580  Biso   1.000  O
  Ir21     1.0000 0.00000  0.33333  0.61797  Biso   1.000  Ir
  Ir22     1.0000 0.25000  0.50000  0.67160  Biso   1.000  Ir
  O41      1.0000 0.15000  0.33333  0.65015  Biso   1.000  O
  O42      1.0000 0.10000  0.50000  0.70377  Biso   1.000  O
  O43      1.0000 0.40000  0.50000  0.63942  Biso   1.000  O
  O44      1.0000 0.35000  0.33333  0.69305  Biso   1.000  O
  Ir23     1.0000 0.00000  0.33333  0.72522  Biso   1.000  Ir
  Ir24     1.0000 0.25000  0.50000  0.77884  Biso   1.000  Ir
  O45      1.0000 0.15000  0.33333  0.75739  Biso   1.000  O
  O46      1.0000 0.10000  0.50000  0.81102  Biso   1.000  O
  O47      1.0000 0.40000  0.50000  0.74667  Biso   1.000  O
  O48      1.0000 0.35000  0.33333  0.80029  Biso   1.000  O
  Ir25     1.0000 0.00000  0.66667  0.18898  Biso   1.000  Ir
  Ir26     1.0000 0.25000  0.83333  0.24261  Biso   1.000  Ir
  O49      1.0000 0.15000  0.66667  0.22116  Biso   1.000  O
  O50      1.0000 0.10000  0.83333  0.27478  Biso   1.000  O
  O51      1.0000 0.40000  0.83333  0.21043  Biso   1.000  O
  O52      1.0000 0.35000  0.66667  0.26406  Biso   1.000  O
  Ir27     1.0000 0.00000  0.66667  0.29623  Biso   1.000  Ir
  Ir28     1.0000 0.25000  0.83333  0.34985  Biso   1.000  Ir
  O53      1.0000 0.15000  0.66667  0.32840  Biso   1.000  O
  O54      1.0000 0.10000  0.83333  0.38203  Biso   1.000  O
  O55      1.0000 0.40000  0.83333  0.31768  Biso   1.000  O
  O56      1.0000 0.35000  0.66667  0.37130  Biso   1.000  O
  Ir29     1.0000 0.00000  0.66667  0.40348  Biso   1.000  Ir
  Ir30     1.0000 0.25000  0.83333  0.45710  Biso   1.000  Ir
  O57      1.0000 0.15000  0.66667  0.43565  Biso   1.000  O
  O58      1.0000 0.10000  0.83333  0.48928  Biso   1.000  O
  O59      1.0000 0.40000  0.83333  0.42493  Biso   1.000  O
  O60      1.0000 0.35000  0.66667  0.47855  Biso   1.000  O
  Ir31     1.0000 0.00000  0.66667  0.51072  Biso   1.000  Ir
  Ir32     1.0000 0.25000  0.83333  0.56435  Biso   1.000  Ir
  O61      1.0000 0.15000  0.66667  0.54290  Biso   1.000  O
  O62      1.0000 0.10000  0.83333  0.59652  Biso   1.000  O
  O63      1.0000 0.40000  0.83333  0.53217  Biso   1.000  O
  O64      1.0000 0.35000  0.66667  0.58580  Biso   1.000  O
  Ir33     1.0000 0.00000  0.66667  0.61797  Biso   1.000  Ir
  Ir34     1.0000 0.25000  0.83333  0.67160  Biso   1.000  Ir
  O65      1.0000 0.15000  0.66667  0.65015  Biso   1.000  O
  O66      1.0000 0.10000  0.83333  0.70377  Biso   1.000  O
  O67      1.0000 0.40000  0.83333  0.63942  Biso   1.000  O
  O68      1.0000 0.35000  0.66667  0.69305  Biso   1.000  O
  Ir35     1.0000 0.00000  0.66667  0.72522  Biso   1.000  Ir
  Ir36     1.0000 0.25000  0.83333  0.77884  Biso   1.000  Ir
  O69      1.0000 0.15000  0.66667  0.75739  Biso   1.000  O
  O70      1.0000 0.10000  0.83333  0.81102  Biso   1.000  O
  O71      1.0000 0.40000  0.83333  0.74667  Biso   1.000  O
  O72      1.0000 0.35000  0.66667  0.80029  Biso   1.000  O
  Ir37     1.0000 0.50000  0.00000  0.18898  Biso   1.000  Ir
  Ir38     1.0000 0.75000  0.16667  0.24261  Biso   1.000  Ir
  O73      1.0000 0.65000  0.00000  0.22116  Biso   1.000  O
  O74      1.0000 0.60000  0.16667  0.27478  Biso   1.000  O
  O75      1.0000 0.90000  0.16667  0.21043  Biso   1.000  O
  O76      1.0000 0.85000  0.00000  0.26406  Biso   1.000  O
  Ir39     1.0000 0.50000  0.00000  0.29623  Biso   1.000  Ir
  Ir40     1.0000 0.75000  0.16667  0.34985  Biso   1.000  Ir
  O77      1.0000 0.65000  0.00000  0.32840  Biso   1.000  O
  O78      1.0000 0.60000  0.16667  0.38203  Biso   1.000  O
  O79      1.0000 0.90000  0.16667  0.31768  Biso   1.000  O
  O80      1.0000 0.85000  0.00000  0.37130  Biso   1.000  O
  Ir41     1.0000 0.50000  0.00000  0.40348  Biso   1.000  Ir
  Ir42     1.0000 0.75000  0.16667  0.45710  Biso   1.000  Ir
  O81      1.0000 0.65000  0.00000  0.43565  Biso   1.000  O
  O82      1.0000 0.60000  0.16667  0.48928  Biso   1.000  O
  O83      1.0000 0.90000  0.16667  0.42493  Biso   1.000  O
  O84      1.0000 0.85000  0.00000  0.47855  Biso   1.000  O
  Ir43     1.0000 0.50000  0.00000  0.51072  Biso   1.000  Ir
  Ir44     1.0000 0.75000  0.16667  0.56435  Biso   1.000  Ir
  O85      1.0000 0.65000  0.00000  0.54290  Biso   1.000  O
  O86      1.0000 0.60000  0.16667  0.59652  Biso   1.000  O
  O87      1.0000 0.90000  0.16667  0.53217  Biso   1.000  O
  O88      1.0000 0.85000  0.00000  0.58580  Biso   1.000  O
  Ir45     1.0000 0.50000  0.00000  0.61797  Biso   1.000  Ir
  Ir46     1.0000 0.75000  0.16667  0.67160  Biso   1.000  Ir
  O89      1.0000 0.65000  0.00000  0.65015  Biso   1.000  O
  O90      1.0000 0.60000  0.16667  0.70377  Biso   1.000  O
  O91      1.0000 0.90000  0.16667  0.63942  Biso   1.000  O
  O92      1.0000 0.85000  0.00000  0.69305  Biso   1.000  O
  Ir47     1.0000 0.50000  0.00000  0.72522  Biso   1.000  Ir
  Ir48     1.0000 0.75000  0.16667  0.77884  Biso   1.000  Ir
  O93      1.0000 0.65000  0.00000  0.75739  Biso   1.000  O
  O94      1.0000 0.60000  0.16667  0.81102  Biso   1.000  O
  O95      1.0000 0.90000  0.16667  0.74667  Biso   1.000  O
  O96      1.0000 0.85000  0.00000  0.80029  Biso   1.000  O
  Ir49     1.0000 0.50000  0.33333  0.18898  Biso   1.000  Ir
  Ir50     1.0000 0.75000  0.50000  0.24261  Biso   1.000  Ir
  O97      1.0000 0.65000  0.33333  0.22116  Biso   1.000  O
  O98      1.0000 0.60000  0.50000  0.27478  Biso   1.000  O
  O99      1.0000 0.90000  0.50000  0.21043  Biso   1.000  O
  O100     1.0000 0.85000  0.33333  0.26406  Biso   1.000  O
  Ir51     1.0000 0.50000  0.33333  0.29623  Biso   1.000  Ir
  Ir52     1.0000 0.75000  0.50000  0.34985  Biso   1.000  Ir
  O101     1.0000 0.65000  0.33333  0.32840  Biso   1.000  O
  O102     1.0000 0.60000  0.50000  0.38203  Biso   1.000  O
  O103     1.0000 0.90000  0.50000  0.31768  Biso   1.000  O
  O104     1.0000 0.85000  0.33333  0.37130  Biso   1.000  O
  Ir53     1.0000 0.50000  0.33333  0.40348  Biso   1.000  Ir
  Ir54     1.0000 0.75000  0.50000  0.45710  Biso   1.000  Ir
  O105     1.0000 0.65000  0.33333  0.43565  Biso   1.000  O
  O106     1.0000 0.60000  0.50000  0.48928  Biso   1.000  O
  O107     1.0000 0.90000  0.50000  0.42493  Biso   1.000  O
  O108     1.0000 0.85000  0.33333  0.47855  Biso   1.000  O
  Ir55     1.0000 0.50000  0.33333  0.51072  Biso   1.000  Ir
  Ir56     1.0000 0.75000  0.50000  0.56435  Biso   1.000  Ir
  O109     1.0000 0.65000  0.33333  0.54290  Biso   1.000  O
  O110     1.0000 0.60000  0.50000  0.59652  Biso   1.000  O
  O111     1.0000 0.90000  0.50000  0.53217  Biso   1.000  O
  O112     1.0000 0.85000  0.33333  0.58580  Biso   1.000  O
  Ir57     1.0000 0.50000  0.33333  0.61797  Biso   1.000  Ir
  Ir58     1.0000 0.75000  0.50000  0.67160  Biso   1.000  Ir
  O113     1.0000 0.65000  0.33333  0.65015  Biso   1.000  O
  O114     1.0000 0.60000  0.50000  0.70377  Biso   1.000  O
  O115     1.0000 0.90000  0.50000  0.63942  Biso   1.000  O
  O116     1.0000 0.85000  0.33333  0.69305  Biso   1.000  O
  Ir59     1.0000 0.50000  0.33333  0.72522  Biso   1.000  Ir
  Ir60     1.0000 0.75000  0.50000  0.77884  Biso   1.000  Ir
  O117     1.0000 0.65000  0.33333  0.75739  Biso   1.000  O
  O118     1.0000 0.60000  0.50000  0.81102  Biso   1.000  O
  O119     1.0000 0.90000  0.50000  0.74667  Biso   1.000  O
  O120     1.0000 0.85000  0.33333  0.80029  Biso   1.000  O
  Ir61     1.0000 0.50000  0.66667  0.18898  Biso   1.000  Ir
  Ir62     1.0000 0.75000  0.83333  0.24261  Biso   1.000  Ir
  O121     1.0000 0.65000  0.66667  0.22116  Biso   1.000  O
  O122     1.0000 0.60000  0.83333  0.27478  Biso   1.000  O
  O123     1.0000 0.90000  0.83333  0.21043  Biso   1.000  O
  O124     1.0000 0.85000  0.66667  0.26406  Biso   1.000  O
  Ir63     1.0000 0.50000  0.66667  0.29623  Biso   1.000  Ir
  Ir64     1.0000 0.75000  0.83333  0.34985  Biso   1.000  Ir
  O125     1.0000 0.65000  0.66667  0.32840  Biso   1.000  O
  O126     1.0000 0.60000  0.83333  0.38203  Biso   1.000  O
  O127     1.0000 0.90000  0.83333  0.31768  Biso   1.000  O
  O128     1.0000 0.85000  0.66667  0.37130  Biso   1.000  O
  Ir65     1.0000 0.50000  0.66667  0.40348  Biso   1.000  Ir
  Ir66     1.0000 0.75000  0.83333  0.45710  Biso   1.000  Ir
  O129     1.0000 0.65000  0.66667  0.43565  Biso   1.000  O
  O130     1.0000 0.60000  0.83333  0.48928  Biso   1.000  O
  O131     1.0000 0.90000  0.83333  0.42493  Biso   1.000  O
  O132     1.0000 0.85000  0.66667  0.47855  Biso   1.000  O
  Ir67     1.0000 0.50000  0.66667  0.51072  Biso   1.000  Ir
  Ir68     1.0000 0.75000  0.83333  0.56435  Biso   1.000  Ir
  O133     1.0000 0.65000  0.66667  0.54290  Biso   1.000  O
  O134     1.0000 0.60000  0.83333  0.59652  Biso   1.000  O
  O135     1.0000 0.90000  0.83333  0.53217  Biso   1.000  O
  O136     1.0000 0.85000  0.66667  0.58580  Biso   1.000  O
  Ir69     1.0000 0.50000  0.66667  0.61797  Biso   1.000  Ir
  Ir70     1.0000 0.75000  0.83333  0.67160  Biso   1.000  Ir
  O137     1.0000 0.65000  0.66667  0.65015  Biso   1.000  O
  O138     1.0000 0.60000  0.83333  0.70377  Biso   1.000  O
  O139     1.0000 0.90000  0.83333  0.63942  Biso   1.000  O
  O140     1.0000 0.85000  0.66667  0.69305  Biso   1.000  O
  Ir71     1.0000 0.50000  0.66667  0.72522  Biso   1.000  Ir
  Ir72     1.0000 0.75000  0.83333  0.77884  Biso   1.000  Ir
  O141     1.0000 0.65000  0.66667  0.75739  Biso   1.000  O
  O142     1.0000 0.60000  0.83333  0.81102  Biso   1.000  O
  O143     1.0000 0.90000  0.83333  0.74667  Biso   1.000  O
  O144     1.0000 0.85000  0.66667  0.80029  Biso   1.000  O
