data_image0
_cell_length_a       12.7576
_cell_length_b       13.62
_cell_length_c       42.332
_cell_angle_alpha    90
_cell_angle_beta     90
_cell_angle_gamma    90

_symmetry_space_group_name_H-M    "P 1"
_symmetry_int_tables_number       1

loop_
  _symmetry_equiv_pos_as_xyz
  'x, y, z'

loop_
  _atom_site_label
  _atom_site_occupancy
  _atom_site_fract_x
  _atom_site_fract_y
  _atom_site_fract_z
  _atom_site_thermal_displace_type
  _atom_site_B_iso_or_equiv
  _atom_site_type_symbol
  Ir1      1.0000 0.12500  0.26667  0.18898  Biso   1.000  Ir
  O1       1.0000 0.00000  0.20000  0.21043  Biso   1.000  O
  O2       1.0000 0.12500  0.03333  0.22116  Biso   1.000  O
  Ir2      1.0000 0.00000  0.10000  0.24261  Biso   1.000  Ir
  O3       1.0000 0.12500  0.16667  0.26406  Biso   1.000  O
  O4       1.0000 0.00000  0.00000  0.27478  Biso   1.000  O
  Ir3      1.0000 0.12500  0.26667  0.29623  Biso   1.000  Ir
  O5       1.0000 0.00000  0.20000  0.31768  Biso   1.000  O
  O6       1.0000 0.12500  0.03333  0.32840  Biso   1.000  O
  Ir4      1.0000 0.00000  0.10000  0.34985  Biso   1.000  Ir
  O7       1.0000 0.12500  0.16667  0.37130  Biso   1.000  O
  O8       1.0000 0.00000  0.00000  0.38203  Biso   1.000  O
  Ir5      1.0000 0.12500  0.26667  0.40348  Biso   1.000  Ir
  O9       1.0000 0.00000  0.20000  0.42493  Biso   1.000  O
  O10      1.0000 0.12500  0.03333  0.43565  Biso   1.000  O
  Ir6      1.0000 0.00000  0.10000  0.45710  Biso   1.000  Ir
  O11      1.0000 0.12500  0.16667  0.47855  Biso   1.000  O
  O12      1.0000 0.00000  0.00000  0.48928  Biso   1.000  O
  Ir7      1.0000 0.12500  0.26667  0.51072  Biso   1.000  Ir
  O13      1.0000 0.00000  0.20000  0.53217  Biso   1.000  O
  O14      1.0000 0.12500  0.03333  0.54290  Biso   1.000  O
  Ir8      1.0000 0.00000  0.10000  0.56435  Biso   1.000  Ir
  O15      1.0000 0.12500  0.16667  0.58580  Biso   1.000  O
  O16      1.0000 0.00000  0.00000  0.59652  Biso   1.000  O
  Ir9      1.0000 0.12500  0.26667  0.61797  Biso   1.000  Ir
  O17      1.0000 0.00000  0.20000  0.63942  Biso   1.000  O
  O18      1.0000 0.12500  0.03333  0.65015  Biso   1.000  O
  Ir10     1.0000 0.00000  0.10000  0.67160  Biso   1.000  Ir
  O19      1.0000 0.12500  0.16667  0.69305  Biso   1.000  O
  O20      1.0000 0.00000  0.00000  0.70377  Biso   1.000  O
  Ir11     1.0000 0.12500  0.26667  0.72522  Biso   1.000  Ir
  O21      1.0000 0.00000  0.20000  0.74667  Biso   1.000  O
  O22      1.0000 0.12500  0.03333  0.75739  Biso   1.000  O
  Ir12     1.0000 0.00000  0.10000  0.77884  Biso   1.000  Ir
  O23      1.0000 0.12500  0.16667  0.80029  Biso   1.000  O
  O24      1.0000 0.00000  0.00000  0.81102  Biso   1.000  O
  Ir13     1.0000 0.12500  0.60000  0.18898  Biso   1.000  Ir
  O25      1.0000 0.00000  0.53333  0.21043  Biso   1.000  O
  O26      1.0000 0.12500  0.36667  0.22116  Biso   1.000  O
  Ir14     1.0000 0.00000  0.43333  0.24261  Biso   1.000  Ir
  O27      1.0000 0.12500  0.50000  0.26406  Biso   1.000  O
  O28      1.0000 0.00000  0.33333  0.27478  Biso   1.000  O
  Ir15     1.0000 0.12500  0.60000  0.29623  Biso   1.000  Ir
  O29      1.0000 0.00000  0.53333  0.31768  Biso   1.000  O
  O30      1.0000 0.12500  0.36667  0.32840  Biso   1.000  O
  Ir16     1.0000 0.00000  0.43333  0.34985  Biso   1.000  Ir
  O31      1.0000 0.12500  0.50000  0.37130  Biso   1.000  O
  O32      1.0000 0.00000  0.33333  0.38203  Biso   1.000  O
  Ir17     1.0000 0.12500  0.60000  0.40348  Biso   1.000  Ir
  O33      1.0000 0.00000  0.53333  0.42493  Biso   1.000  O
  O34      1.0000 0.12500  0.36667  0.43565  Biso   1.000  O
  Ir18     1.0000 0.00000  0.43333  0.45710  Biso   1.000  Ir
  O35      1.0000 0.12500  0.50000  0.47855  Biso   1.000  O
  O36      1.0000 0.00000  0.33333  0.48928  Biso   1.000  O
  Ir19     1.0000 0.12500  0.60000  0.51072  Biso   1.000  Ir
  O37      1.0000 0.00000  0.53333  0.53217  Biso   1.000  O
  O38      1.0000 0.12500  0.36667  0.54290  Biso   1.000  O
  Ir20     1.0000 0.00000  0.43333  0.56435  Biso   1.000  Ir
  O39      1.0000 0.12500  0.50000  0.58580  Biso   1.000  O
  O40      1.0000 0.00000  0.33333  0.59652  Biso   1.000  O
  Ir21     1.0000 0.12500  0.60000  0.61797  Biso   1.000  Ir
  O41      1.0000 0.00000  0.53333  0.63942  Biso   1.000  O
  O42      1.0000 0.12500  0.36667  0.65015  Biso   1.000  O
  Ir22     1.0000 0.00000  0.43333  0.67160  Biso   1.000  Ir
  O43      1.0000 0.12500  0.50000  0.69305  Biso   1.000  O
  O44      1.0000 0.00000  0.33333  0.70377  Biso   1.000  O
  Ir23     1.0000 0.12500  0.60000  0.72522  Biso   1.000  Ir
  O45      1.0000 0.00000  0.53333  0.74667  Biso   1.000  O
  O46      1.0000 0.12500  0.36667  0.75739  Biso   1.000  O
  Ir24     1.0000 0.00000  0.43333  0.77884  Biso   1.000  Ir
  O47      1.0000 0.12500  0.50000  0.80029  Biso   1.000  O
  O48      1.0000 0.00000  0.33333  0.81102  Biso   1.000  O
  Ir25     1.0000 0.12500  0.93333  0.18898  Biso   1.000  Ir
  O49      1.0000 0.00000  0.86667  0.21043  Biso   1.000  O
  O50      1.0000 0.12500  0.70000  0.22116  Biso   1.000  O
  Ir26     1.0000 0.00000  0.76667  0.24261  Biso   1.000  Ir
  O51      1.0000 0.12500  0.83333  0.26406  Biso   1.000  O
  O52      1.0000 0.00000  0.66667  0.27478  Biso   1.000  O
  Ir27     1.0000 0.12500  0.93333  0.29623  Biso   1.000  Ir
  O53      1.0000 0.00000  0.86667  0.31768  Biso   1.000  O
  O54      1.0000 0.12500  0.70000  0.32840  Biso   1.000  O
  Ir28     1.0000 0.00000  0.76667  0.34985  Biso   1.000  Ir
  O55      1.0000 0.12500  0.83333  0.37130  Biso   1.000  O
  O56      1.0000 0.00000  0.66667  0.38203  Biso   1.000  O
  Ir29     1.0000 0.12500  0.93333  0.40348  Biso   1.000  Ir
  O57      1.0000 0.00000  0.86667  0.42493  Biso   1.000  O
  O58      1.0000 0.12500  0.70000  0.43565  Biso   1.000  O
  Ir30     1.0000 0.00000  0.76667  0.45710  Biso   1.000  Ir
  O59      1.0000 0.12500  0.83333  0.47855  Biso   1.000  O
  O60      1.0000 0.00000  0.66667  0.48928  Biso   1.000  O
  Ir31     1.0000 0.12500  0.93333  0.51072  Biso   1.000  Ir
  O61      1.0000 0.00000  0.86667  0.53217  Biso   1.000  O
  O62      1.0000 0.12500  0.70000  0.54290  Biso   1.000  O
  Ir32     1.0000 0.00000  0.76667  0.56435  Biso   1.000  Ir
  O63      1.0000 0.12500  0.83333  0.58580  Biso   1.000  O
  O64      1.0000 0.00000  0.66667  0.59652  Biso   1.000  O
  Ir33     1.0000 0.12500  0.93333  0.61797  Biso   1.000  Ir
  O65      1.0000 0.00000  0.86667  0.63942  Biso   1.000  O
  O66      1.0000 0.12500  0.70000  0.65015  Biso   1.000  O
  Ir34     1.0000 0.00000  0.76667  0.67160  Biso   1.000  Ir
  O67      1.0000 0.12500  0.83333  0.69305  Biso   1.000  O
  O68      1.0000 0.00000  0.66667  0.70377  Biso   1.000  O
  Ir35     1.0000 0.12500  0.93333  0.72522  Biso   1.000  Ir
  O69      1.0000 0.00000  0.86667  0.74667  Biso   1.000  O
  O70      1.0000 0.12500  0.70000  0.75739  Biso   1.000  O
  Ir36     1.0000 0.00000  0.76667  0.77884  Biso   1.000  Ir
  O71      1.0000 0.12500  0.83333  0.80029  Biso   1.000  O
  O72      1.0000 0.00000  0.66667  0.81102  Biso   1.000  O
  Ir37     1.0000 0.37500  0.26667  0.18898  Biso   1.000  Ir
  O73      1.0000 0.25000  0.20000  0.21043  Biso   1.000  O
  O74      1.0000 0.37500  0.03333  0.22116  Biso   1.000  O
  Ir38     1.0000 0.25000  0.10000  0.24261  Biso   1.000  Ir
  O75      1.0000 0.37500  0.16667  0.26406  Biso   1.000  O
  O76      1.0000 0.25000  0.00000  0.27478  Biso   1.000  O
  Ir39     1.0000 0.37500  0.26667  0.29623  Biso   1.000  Ir
  O77      1.0000 0.25000  0.20000  0.31768  Biso   1.000  O
  O78      1.0000 0.37500  0.03333  0.32840  Biso   1.000  O
  Ir40     1.0000 0.25000  0.10000  0.34985  Biso   1.000  Ir
  O79      1.0000 0.37500  0.16667  0.37130  Biso   1.000  O
  O80      1.0000 0.25000  0.00000  0.38203  Biso   1.000  O
  Ir41     1.0000 0.37500  0.26667  0.40348  Biso   1.000  Ir
  O81      1.0000 0.25000  0.20000  0.42493  Biso   1.000  O
  O82      1.0000 0.37500  0.03333  0.43565  Biso   1.000  O
  Ir42     1.0000 0.25000  0.10000  0.45710  Biso   1.000  Ir
  O83      1.0000 0.37500  0.16667  0.47855  Biso   1.000  O
  O84      1.0000 0.25000  0.00000  0.48928  Biso   1.000  O
  Ir43     1.0000 0.37500  0.26667  0.51072  Biso   1.000  Ir
  O85      1.0000 0.25000  0.20000  0.53217  Biso   1.000  O
  O86      1.0000 0.37500  0.03333  0.54290  Biso   1.000  O
  Ir44     1.0000 0.25000  0.10000  0.56435  Biso   1.000  Ir
  O87      1.0000 0.37500  0.16667  0.58580  Biso   1.000  O
  O88      1.0000 0.25000  0.00000  0.59652  Biso   1.000  O
  Ir45     1.0000 0.37500  0.26667  0.61797  Biso   1.000  Ir
  O89      1.0000 0.25000  0.20000  0.63942  Biso   1.000  O
  O90      1.0000 0.37500  0.03333  0.65015  Biso   1.000  O
  Ir46     1.0000 0.25000  0.10000  0.67160  Biso   1.000  Ir
  O91      1.0000 0.37500  0.16667  0.69305  Biso   1.000  O
  O92      1.0000 0.25000  0.00000  0.70377  Biso   1.000  O
  Ir47     1.0000 0.37500  0.26667  0.72522  Biso   1.000  Ir
  O93      1.0000 0.25000  0.20000  0.74667  Biso   1.000  O
  O94      1.0000 0.37500  0.03333  0.75739  Biso   1.000  O
  Ir48     1.0000 0.25000  0.10000  0.77884  Biso   1.000  Ir
  O95      1.0000 0.37500  0.16667  0.80029  Biso   1.000  O
  O96      1.0000 0.25000  0.00000  0.81102  Biso   1.000  O
  Ir49     1.0000 0.37500  0.60000  0.18898  Biso   1.000  Ir
  O97      1.0000 0.25000  0.53333  0.21043  Biso   1.000  O
  O98      1.0000 0.37500  0.36667  0.22116  Biso   1.000  O
  Ir50     1.0000 0.25000  0.43333  0.24261  Biso   1.000  Ir
  O99      1.0000 0.37500  0.50000  0.26406  Biso   1.000  O
  O100     1.0000 0.25000  0.33333  0.27478  Biso   1.000  O
  Ir51     1.0000 0.37500  0.60000  0.29623  Biso   1.000  Ir
  O101     1.0000 0.25000  0.53333  0.31768  Biso   1.000  O
  O102     1.0000 0.37500  0.36667  0.32840  Biso   1.000  O
  Ir52     1.0000 0.25000  0.43333  0.34985  Biso   1.000  Ir
  O103     1.0000 0.37500  0.50000  0.37130  Biso   1.000  O
  O104     1.0000 0.25000  0.33333  0.38203  Biso   1.000  O
  Ir53     1.0000 0.37500  0.60000  0.40348  Biso   1.000  Ir
  O105     1.0000 0.25000  0.53333  0.42493  Biso   1.000  O
  O106     1.0000 0.37500  0.36667  0.43565  Biso   1.000  O
  Ir54     1.0000 0.25000  0.43333  0.45710  Biso   1.000  Ir
  O107     1.0000 0.37500  0.50000  0.47855  Biso   1.000  O
  O108     1.0000 0.25000  0.33333  0.48928  Biso   1.000  O
  Ir55     1.0000 0.37500  0.60000  0.51072  Biso   1.000  Ir
  O109     1.0000 0.25000  0.53333  0.53217  Biso   1.000  O
  O110     1.0000 0.37500  0.36667  0.54290  Biso   1.000  O
  Ir56     1.0000 0.25000  0.43333  0.56435  Biso   1.000  Ir
  O111     1.0000 0.37500  0.50000  0.58580  Biso   1.000  O
  O112     1.0000 0.25000  0.33333  0.59652  Biso   1.000  O
  Ir57     1.0000 0.37500  0.60000  0.61797  Biso   1.000  Ir
  O113     1.0000 0.25000  0.53333  0.63942  Biso   1.000  O
  O114     1.0000 0.37500  0.36667  0.65015  Biso   1.000  O
  Ir58     1.0000 0.25000  0.43333  0.67160  Biso   1.000  Ir
  O115     1.0000 0.37500  0.50000  0.69305  Biso   1.000  O
  O116     1.0000 0.25000  0.33333  0.70377  Biso   1.000  O
  Ir59     1.0000 0.37500  0.60000  0.72522  Biso   1.000  Ir
  O117     1.0000 0.25000  0.53333  0.74667  Biso   1.000  O
  O118     1.0000 0.37500  0.36667  0.75739  Biso   1.000  O
  Ir60     1.0000 0.25000  0.43333  0.77884  Biso   1.000  Ir
  O119     1.0000 0.37500  0.50000  0.80029  Biso   1.000  O
  O120     1.0000 0.25000  0.33333  0.81102  Biso   1.000  O
  Ir61     1.0000 0.37500  0.93333  0.18898  Biso   1.000  Ir
  O121     1.0000 0.25000  0.86667  0.21043  Biso   1.000  O
  O122     1.0000 0.37500  0.70000  0.22116  Biso   1.000  O
  Ir62     1.0000 0.25000  0.76667  0.24261  Biso   1.000  Ir
  O123     1.0000 0.37500  0.83333  0.26406  Biso   1.000  O
  O124     1.0000 0.25000  0.66667  0.27478  Biso   1.000  O
  Ir63     1.0000 0.37500  0.93333  0.29623  Biso   1.000  Ir
  O125     1.0000 0.25000  0.86667  0.31768  Biso   1.000  O
  O126     1.0000 0.37500  0.70000  0.32840  Biso   1.000  O
  Ir64     1.0000 0.25000  0.76667  0.34985  Biso   1.000  Ir
  O127     1.0000 0.37500  0.83333  0.37130  Biso   1.000  O
  O128     1.0000 0.25000  0.66667  0.38203  Biso   1.000  O
  Ir65     1.0000 0.37500  0.93333  0.40348  Biso   1.000  Ir
  O129     1.0000 0.25000  0.86667  0.42493  Biso   1.000  O
  O130     1.0000 0.37500  0.70000  0.43565  Biso   1.000  O
  Ir66     1.0000 0.25000  0.76667  0.45710  Biso   1.000  Ir
  O131     1.0000 0.37500  0.83333  0.47855  Biso   1.000  O
  O132     1.0000 0.25000  0.66667  0.48928  Biso   1.000  O
  Ir67     1.0000 0.37500  0.93333  0.51072  Biso   1.000  Ir
  O133     1.0000 0.25000  0.86667  0.53217  Biso   1.000  O
  O134     1.0000 0.37500  0.70000  0.54290  Biso   1.000  O
  Ir68     1.0000 0.25000  0.76667  0.56435  Biso   1.000  Ir
  O135     1.0000 0.37500  0.83333  0.58580  Biso   1.000  O
  O136     1.0000 0.25000  0.66667  0.59652  Biso   1.000  O
  Ir69     1.0000 0.37500  0.93333  0.61797  Biso   1.000  Ir
  O137     1.0000 0.25000  0.86667  0.63942  Biso   1.000  O
  O138     1.0000 0.37500  0.70000  0.65015  Biso   1.000  O
  Ir70     1.0000 0.25000  0.76667  0.67160  Biso   1.000  Ir
  O139     1.0000 0.37500  0.83333  0.69305  Biso   1.000  O
  O140     1.0000 0.25000  0.66667  0.70377  Biso   1.000  O
  Ir71     1.0000 0.37500  0.93333  0.72522  Biso   1.000  Ir
  O141     1.0000 0.25000  0.86667  0.74667  Biso   1.000  O
  O142     1.0000 0.37500  0.70000  0.75739  Biso   1.000  O
  Ir72     1.0000 0.25000  0.76667  0.77884  Biso   1.000  Ir
  O143     1.0000 0.37500  0.83333  0.80029  Biso   1.000  O
  O144     1.0000 0.25000  0.66667  0.81102  Biso   1.000  O
  Ir73     1.0000 0.62500  0.26667  0.18898  Biso   1.000  Ir
  O145     1.0000 0.50000  0.20000  0.21043  Biso   1.000  O
  O146     1.0000 0.62500  0.03333  0.22116  Biso   1.000  O
  Ir74     1.0000 0.50000  0.10000  0.24261  Biso   1.000  Ir
  O147     1.0000 0.62500  0.16667  0.26406  Biso   1.000  O
  O148     1.0000 0.50000  0.00000  0.27478  Biso   1.000  O
  Ir75     1.0000 0.62500  0.26667  0.29623  Biso   1.000  Ir
  O149     1.0000 0.50000  0.20000  0.31768  Biso   1.000  O
  O150     1.0000 0.62500  0.03333  0.32840  Biso   1.000  O
  Ir76     1.0000 0.50000  0.10000  0.34985  Biso   1.000  Ir
  O151     1.0000 0.62500  0.16667  0.37130  Biso   1.000  O
  O152     1.0000 0.50000  0.00000  0.38203  Biso   1.000  O
  Ir77     1.0000 0.62500  0.26667  0.40348  Biso   1.000  Ir
  O153     1.0000 0.50000  0.20000  0.42493  Biso   1.000  O
  O154     1.0000 0.62500  0.03333  0.43565  Biso   1.000  O
  Ir78     1.0000 0.50000  0.10000  0.45710  Biso   1.000  Ir
  O155     1.0000 0.62500  0.16667  0.47855  Biso   1.000  O
  O156     1.0000 0.50000  0.00000  0.48928  Biso   1.000  O
  Ir79     1.0000 0.62500  0.26667  0.51072  Biso   1.000  Ir
  O157     1.0000 0.50000  0.20000  0.53217  Biso   1.000  O
  O158     1.0000 0.62500  0.03333  0.54290  Biso   1.000  O
  Ir80     1.0000 0.50000  0.10000  0.56435  Biso   1.000  Ir
  O159     1.0000 0.62500  0.16667  0.58580  Biso   1.000  O
  O160     1.0000 0.50000  0.00000  0.59652  Biso   1.000  O
  Ir81     1.0000 0.62500  0.26667  0.61797  Biso   1.000  Ir
  O161     1.0000 0.50000  0.20000  0.63942  Biso   1.000  O
  O162     1.0000 0.62500  0.03333  0.65015  Biso   1.000  O
  Ir82     1.0000 0.50000  0.10000  0.67160  Biso   1.000  Ir
  O163     1.0000 0.62500  0.16667  0.69305  Biso   1.000  O
  O164     1.0000 0.50000  0.00000  0.70377  Biso   1.000  O
  Ir83     1.0000 0.62500  0.26667  0.72522  Biso   1.000  Ir
  O165     1.0000 0.50000  0.20000  0.74667  Biso   1.000  O
  O166     1.0000 0.62500  0.03333  0.75739  Biso   1.000  O
  Ir84     1.0000 0.50000  0.10000  0.77884  Biso   1.000  Ir
  O167     1.0000 0.62500  0.16667  0.80029  Biso   1.000  O
  O168     1.0000 0.50000  0.00000  0.81102  Biso   1.000  O
  Ir85     1.0000 0.62500  0.60000  0.18898  Biso   1.000  Ir
  O169     1.0000 0.50000  0.53333  0.21043  Biso   1.000  O
  O170     1.0000 0.62500  0.36667  0.22116  Biso   1.000  O
  Ir86     1.0000 0.50000  0.43333  0.24261  Biso   1.000  Ir
  O171     1.0000 0.62500  0.50000  0.26406  Biso   1.000  O
  O172     1.0000 0.50000  0.33333  0.27478  Biso   1.000  O
  Ir87     1.0000 0.62500  0.60000  0.29623  Biso   1.000  Ir
  O173     1.0000 0.50000  0.53333  0.31768  Biso   1.000  O
  O174     1.0000 0.62500  0.36667  0.32840  Biso   1.000  O
  Ir88     1.0000 0.50000  0.43333  0.34985  Biso   1.000  Ir
  O175     1.0000 0.62500  0.50000  0.37130  Biso   1.000  O
  O176     1.0000 0.50000  0.33333  0.38203  Biso   1.000  O
  Ir89     1.0000 0.62500  0.60000  0.40348  Biso   1.000  Ir
  O177     1.0000 0.50000  0.53333  0.42493  Biso   1.000  O
  O178     1.0000 0.62500  0.36667  0.43565  Biso   1.000  O
  Ir90     1.0000 0.50000  0.43333  0.45710  Biso   1.000  Ir
  O179     1.0000 0.62500  0.50000  0.47855  Biso   1.000  O
  O180     1.0000 0.50000  0.33333  0.48928  Biso   1.000  O
  Ir91     1.0000 0.62500  0.60000  0.51072  Biso   1.000  Ir
  O181     1.0000 0.50000  0.53333  0.53217  Biso   1.000  O
  O182     1.0000 0.62500  0.36667  0.54290  Biso   1.000  O
  Ir92     1.0000 0.50000  0.43333  0.56435  Biso   1.000  Ir
  O183     1.0000 0.62500  0.50000  0.58580  Biso   1.000  O
  O184     1.0000 0.50000  0.33333  0.59652  Biso   1.000  O
  Ir93     1.0000 0.62500  0.60000  0.61797  Biso   1.000  Ir
  O185     1.0000 0.50000  0.53333  0.63942  Biso   1.000  O
  O186     1.0000 0.62500  0.36667  0.65015  Biso   1.000  O
  Ir94     1.0000 0.50000  0.43333  0.67160  Biso   1.000  Ir
  O187     1.0000 0.62500  0.50000  0.69305  Biso   1.000  O
  O188     1.0000 0.50000  0.33333  0.70377  Biso   1.000  O
  Ir95     1.0000 0.62500  0.60000  0.72522  Biso   1.000  Ir
  O189     1.0000 0.50000  0.53333  0.74667  Biso   1.000  O
  O190     1.0000 0.62500  0.36667  0.75739  Biso   1.000  O
  Ir96     1.0000 0.50000  0.43333  0.77884  Biso   1.000  Ir
  O191     1.0000 0.62500  0.50000  0.80029  Biso   1.000  O
  O192     1.0000 0.50000  0.33333  0.81102  Biso   1.000  O
  Ir97     1.0000 0.62500  0.93333  0.18898  Biso   1.000  Ir
  O193     1.0000 0.50000  0.86667  0.21043  Biso   1.000  O
  O194     1.0000 0.62500  0.70000  0.22116  Biso   1.000  O
  Ir98     1.0000 0.50000  0.76667  0.24261  Biso   1.000  Ir
  O195     1.0000 0.62500  0.83333  0.26406  Biso   1.000  O
  O196     1.0000 0.50000  0.66667  0.27478  Biso   1.000  O
  Ir99     1.0000 0.62500  0.93333  0.29623  Biso   1.000  Ir
  O197     1.0000 0.50000  0.86667  0.31768  Biso   1.000  O
  O198     1.0000 0.62500  0.70000  0.32840  Biso   1.000  O
  Ir100    1.0000 0.50000  0.76667  0.34985  Biso   1.000  Ir
  O199     1.0000 0.62500  0.83333  0.37130  Biso   1.000  O
  O200     1.0000 0.50000  0.66667  0.38203  Biso   1.000  O
  Ir101    1.0000 0.62500  0.93333  0.40348  Biso   1.000  Ir
  O201     1.0000 0.50000  0.86667  0.42493  Biso   1.000  O
  O202     1.0000 0.62500  0.70000  0.43565  Biso   1.000  O
  Ir102    1.0000 0.50000  0.76667  0.45710  Biso   1.000  Ir
  O203     1.0000 0.62500  0.83333  0.47855  Biso   1.000  O
  O204     1.0000 0.50000  0.66667  0.48928  Biso   1.000  O
  Ir103    1.0000 0.62500  0.93333  0.51072  Biso   1.000  Ir
  O205     1.0000 0.50000  0.86667  0.53217  Biso   1.000  O
  O206     1.0000 0.62500  0.70000  0.54290  Biso   1.000  O
  Ir104    1.0000 0.50000  0.76667  0.56435  Biso   1.000  Ir
  O207     1.0000 0.62500  0.83333  0.58580  Biso   1.000  O
  O208     1.0000 0.50000  0.66667  0.59652  Biso   1.000  O
  Ir105    1.0000 0.62500  0.93333  0.61797  Biso   1.000  Ir
  O209     1.0000 0.50000  0.86667  0.63942  Biso   1.000  O
  O210     1.0000 0.62500  0.70000  0.65015  Biso   1.000  O
  Ir106    1.0000 0.50000  0.76667  0.67160  Biso   1.000  Ir
  O211     1.0000 0.62500  0.83333  0.69305  Biso   1.000  O
  O212     1.0000 0.50000  0.66667  0.70377  Biso   1.000  O
  Ir107    1.0000 0.62500  0.93333  0.72522  Biso   1.000  Ir
  O213     1.0000 0.50000  0.86667  0.74667  Biso   1.000  O
  O214     1.0000 0.62500  0.70000  0.75739  Biso   1.000  O
  Ir108    1.0000 0.50000  0.76667  0.77884  Biso   1.000  Ir
  O215     1.0000 0.62500  0.83333  0.80029  Biso   1.000  O
  O216     1.0000 0.50000  0.66667  0.81102  Biso   1.000  O
  Ir109    1.0000 0.87500  0.26667  0.18898  Biso   1.000  Ir
  O217     1.0000 0.75000  0.20000  0.21043  Biso   1.000  O
  O218     1.0000 0.87500  0.03333  0.22116  Biso   1.000  O
  Ir110    1.0000 0.75000  0.10000  0.24261  Biso   1.000  Ir
  O219     1.0000 0.87500  0.16667  0.26406  Biso   1.000  O
  O220     1.0000 0.75000  0.00000  0.27478  Biso   1.000  O
  Ir111    1.0000 0.87500  0.26667  0.29623  Biso   1.000  Ir
  O221     1.0000 0.75000  0.20000  0.31768  Biso   1.000  O
  O222     1.0000 0.87500  0.03333  0.32840  Biso   1.000  O
  Ir112    1.0000 0.75000  0.10000  0.34985  Biso   1.000  Ir
  O223     1.0000 0.87500  0.16667  0.37130  Biso   1.000  O
  O224     1.0000 0.75000  0.00000  0.38203  Biso   1.000  O
  Ir113    1.0000 0.87500  0.26667  0.40348  Biso   1.000  Ir
  O225     1.0000 0.75000  0.20000  0.42493  Biso   1.000  O
  O226     1.0000 0.87500  0.03333  0.43565  Biso   1.000  O
  Ir114    1.0000 0.75000  0.10000  0.45710  Biso   1.000  Ir
  O227     1.0000 0.87500  0.16667  0.47855  Biso   1.000  O
  O228     1.0000 0.75000  0.00000  0.48928  Biso   1.000  O
  Ir115    1.0000 0.87500  0.26667  0.51072  Biso   1.000  Ir
  O229     1.0000 0.75000  0.20000  0.53217  Biso   1.000  O
  O230     1.0000 0.87500  0.03333  0.54290  Biso   1.000  O
  Ir116    1.0000 0.75000  0.10000  0.56435  Biso   1.000  Ir
  O231     1.0000 0.87500  0.16667  0.58580  Biso   1.000  O
  O232     1.0000 0.75000  0.00000  0.59652  Biso   1.000  O
  Ir117    1.0000 0.87500  0.26667  0.61797  Biso   1.000  Ir
  O233     1.0000 0.75000  0.20000  0.63942  Biso   1.000  O
  O234     1.0000 0.87500  0.03333  0.65015  Biso   1.000  O
  Ir118    1.0000 0.75000  0.10000  0.67160  Biso   1.000  Ir
  O235     1.0000 0.87500  0.16667  0.69305  Biso   1.000  O
  O236     1.0000 0.75000  0.00000  0.70377  Biso   1.000  O
  Ir119    1.0000 0.87500  0.26667  0.72522  Biso   1.000  Ir
  O237     1.0000 0.75000  0.20000  0.74667  Biso   1.000  O
  O238     1.0000 0.87500  0.03333  0.75739  Biso   1.000  O
  Ir120    1.0000 0.75000  0.10000  0.77884  Biso   1.000  Ir
  O239     1.0000 0.87500  0.16667  0.80029  Biso   1.000  O
  O240     1.0000 0.75000  0.00000  0.81102  Biso   1.000  O
  Ir121    1.0000 0.87500  0.60000  0.18898  Biso   1.000  Ir
  O241     1.0000 0.75000  0.53333  0.21043  Biso   1.000  O
  O242     1.0000 0.87500  0.36667  0.22116  Biso   1.000  O
  Ir122    1.0000 0.75000  0.43333  0.24261  Biso   1.000  Ir
  O243     1.0000 0.87500  0.50000  0.26406  Biso   1.000  O
  O244     1.0000 0.75000  0.33333  0.27478  Biso   1.000  O
  Ir123    1.0000 0.87500  0.60000  0.29623  Biso   1.000  Ir
  O245     1.0000 0.75000  0.53333  0.31768  Biso   1.000  O
  O246     1.0000 0.87500  0.36667  0.32840  Biso   1.000  O
  Ir124    1.0000 0.75000  0.43333  0.34985  Biso   1.000  Ir
  O247     1.0000 0.87500  0.50000  0.37130  Biso   1.000  O
  O248     1.0000 0.75000  0.33333  0.38203  Biso   1.000  O
  Ir125    1.0000 0.87500  0.60000  0.40348  Biso   1.000  Ir
  O249     1.0000 0.75000  0.53333  0.42493  Biso   1.000  O
  O250     1.0000 0.87500  0.36667  0.43565  Biso   1.000  O
  Ir126    1.0000 0.75000  0.43333  0.45710  Biso   1.000  Ir
  O251     1.0000 0.87500  0.50000  0.47855  Biso   1.000  O
  O252     1.0000 0.75000  0.33333  0.48928  Biso   1.000  O
  Ir127    1.0000 0.87500  0.60000  0.51072  Biso   1.000  Ir
  O253     1.0000 0.75000  0.53333  0.53217  Biso   1.000  O
  O254     1.0000 0.87500  0.36667  0.54290  Biso   1.000  O
  Ir128    1.0000 0.75000  0.43333  0.56435  Biso   1.000  Ir
  O255     1.0000 0.87500  0.50000  0.58580  Biso   1.000  O
  O256     1.0000 0.75000  0.33333  0.59652  Biso   1.000  O
  Ir129    1.0000 0.87500  0.60000  0.61797  Biso   1.000  Ir
  O257     1.0000 0.75000  0.53333  0.63942  Biso   1.000  O
  O258     1.0000 0.87500  0.36667  0.65015  Biso   1.000  O
  Ir130    1.0000 0.75000  0.43333  0.67160  Biso   1.000  Ir
  O259     1.0000 0.87500  0.50000  0.69305  Biso   1.000  O
  O260     1.0000 0.75000  0.33333  0.70377  Biso   1.000  O
  Ir131    1.0000 0.87500  0.60000  0.72522  Biso   1.000  Ir
  O261     1.0000 0.75000  0.53333  0.74667  Biso   1.000  O
  O262     1.0000 0.87500  0.36667  0.75739  Biso   1.000  O
  Ir132    1.0000 0.75000  0.43333  0.77884  Biso   1.000  Ir
  O263     1.0000 0.87500  0.50000  0.80029  Biso   1.000  O
  O264     1.0000 0.75000  0.33333  0.81102  Biso   1.000  O
  Ir133    1.0000 0.87500  0.93333  0.18898  Biso   1.000  Ir
  O265     1.0000 0.75000  0.86667  0.21043  Biso   1.000  O
  O266     1.0000 0.87500  0.70000  0.22116  Biso   1.000  O
  Ir134    1.0000 0.75000  0.76667  0.24261  Biso   1.000  Ir
  O267     1.0000 0.87500  0.83333  0.26406  Biso   1.000  O
  O268     1.0000 0.75000  0.66667  0.27478  Biso   1.000  O
  Ir135    1.0000 0.87500  0.93333  0.29623  Biso   1.000  Ir
  O269     1.0000 0.75000  0.86667  0.31768  Biso   1.000  O
  O270     1.0000 0.87500  0.70000  0.32840  Biso   1.000  O
  Ir136    1.0000 0.75000  0.76667  0.34985  Biso   1.000  Ir
  O271     1.0000 0.87500  0.83333  0.37130  Biso   1.000  O
  O272     1.0000 0.75000  0.66667  0.38203  Biso   1.000  O
  Ir137    1.0000 0.87500  0.93333  0.40348  Biso   1.000  Ir
  O273     1.0000 0.75000  0.86667  0.42493  Biso   1.000  O
  O274     1.0000 0.87500  0.70000  0.43565  Biso   1.000  O
  Ir138    1.0000 0.75000  0.76667  0.45710  Biso   1.000  Ir
  O275     1.0000 0.87500  0.83333  0.47855  Biso   1.000  O
  O276     1.0000 0.75000  0.66667  0.48928  Biso   1.000  O
  Ir139    1.0000 0.87500  0.93333  0.51072  Biso   1.000  Ir
  O277     1.0000 0.75000  0.86667  0.53217  Biso   1.000  O
  O278     1.0000 0.87500  0.70000  0.54290  Biso   1.000  O
  Ir140    1.0000 0.75000  0.76667  0.56435  Biso   1.000  Ir
  O279     1.0000 0.87500  0.83333  0.58580  Biso   1.000  O
  O280     1.0000 0.75000  0.66667  0.59652  Biso   1.000  O
  Ir141    1.0000 0.87500  0.93333  0.61797  Biso   1.000  Ir
  O281     1.0000 0.75000  0.86667  0.63942  Biso   1.000  O
  O282     1.0000 0.87500  0.70000  0.65015  Biso   1.000  O
  Ir142    1.0000 0.75000  0.76667  0.67160  Biso   1.000  Ir
  O283     1.0000 0.87500  0.83333  0.69305  Biso   1.000  O
  O284     1.0000 0.75000  0.66667  0.70377  Biso   1.000  O
  Ir143    1.0000 0.87500  0.93333  0.72522  Biso   1.000  Ir
  O285     1.0000 0.75000  0.86667  0.74667  Biso   1.000  O
  O286     1.0000 0.87500  0.70000  0.75739  Biso   1.000  O
  Ir144    1.0000 0.75000  0.76667  0.77884  Biso   1.000  Ir
  O287     1.0000 0.87500  0.83333  0.80029  Biso   1.000  O
  O288     1.0000 0.75000  0.66667  0.81102  Biso   1.000  O
