data_image0
_cell_length_a       7.0938
_cell_length_b       7.0938
_cell_length_c       27.8371
_cell_angle_alpha    90
_cell_angle_beta     90
_cell_angle_gamma    92.9993

_symmetry_space_group_name_H-M    "P 1"
_symmetry_int_tables_number       1

loop_
  _symmetry_equiv_pos_as_xyz
  'x, y, z'

loop_
  _atom_site_label
  _atom_site_occupancy
  _atom_site_fract_x
  _atom_site_fract_y
  _atom_site_fract_z
  _atom_site_thermal_displace_type
  _atom_site_B_iso_or_equiv
  _atom_site_type_symbol
  Ir1      1.0000 0.49270  0.37698  0.28904  Biso   1.000  Ir
  Ir2      1.0000 0.99271  0.87698  0.28904  Biso   1.000  Ir
  Ir3      1.0000 0.01758  0.35212  0.41612  Biso   1.000  Ir
  Ir4      1.0000 0.51758  0.85212  0.41612  Biso   1.000  Ir
  Ir5      1.0000 0.04062  0.82770  0.54372  Biso   1.000  Ir
  Ir6      1.0000 0.54068  0.33034  0.54210  Biso   1.000  Ir
  Ir7      1.0000 0.06515  0.29532  0.67474  Biso   1.000  Ir
  Ir8      1.0000 0.56644  0.80319  0.67464  Biso   1.000  Ir
  Ir9      1.0000 0.49271  0.87698  0.28904  Biso   1.000  Ir
  Ir10     1.0000 0.99270  0.37698  0.28904  Biso   1.000  Ir
  Ir11     1.0000 0.01758  0.85212  0.41612  Biso   1.000  Ir
  Ir12     1.0000 0.51758  0.35212  0.41612  Biso   1.000  Ir
  Ir13     1.0000 0.04084  0.32762  0.54367  Biso   1.000  Ir
  Ir14     1.0000 0.54188  0.82934  0.54360  Biso   1.000  Ir
  Ir15     1.0000 0.07256  0.80118  0.67422  Biso   1.000  Ir
  Ir16     1.0000 0.55598  0.30064  0.66553  Biso   1.000  Ir
  O1       1.0000 0.42799  0.28739  0.35258  Biso   1.000  O
  O2       1.0000 0.92798  0.78739  0.35258  Biso   1.000  O
  O3       1.0000 0.45284  0.76253  0.47966  Biso   1.000  O
  O4       1.0000 0.95285  0.26253  0.47966  Biso   1.000  O
  O5       1.0000 0.46560  0.23282  0.60495  Biso   1.000  O
  O6       1.0000 0.98978  0.75102  0.60877  Biso   1.000  O
  O7       1.0000 0.02748  0.20075  0.73305  Biso   1.000  O
  O8       1.0000 0.49570  0.72124  0.73232  Biso   1.000  O
  O9       1.0000 0.23888  0.30367  0.26943  Biso   1.000  O
  O10      1.0000 0.73887  0.80367  0.26943  Biso   1.000  O
  O11      1.0000 0.26374  0.77881  0.39651  Biso   1.000  O
  O12      1.0000 0.76374  0.27881  0.39651  Biso   1.000  O
  O13      1.0000 0.28476  0.25349  0.52352  Biso   1.000  O
  O14      1.0000 0.78721  0.75262  0.52425  Biso   1.000  O
  O15      1.0000 0.31392  0.72441  0.65033  Biso   1.000  O
  O16      1.0000 0.80756  0.22609  0.65522  Biso   1.000  O
  O17      1.0000 0.24654  0.95030  0.30865  Biso   1.000  O
  O18      1.0000 0.74654  0.45030  0.30865  Biso   1.000  O
  O19      1.0000 0.27140  0.42544  0.43573  Biso   1.000  O
  O20      1.0000 0.77140  0.92544  0.43573  Biso   1.000  O
  O21      1.0000 0.29524  0.90556  0.56203  Biso   1.000  O
  O22      1.0000 0.79272  0.40395  0.56297  Biso   1.000  O
  O23      1.0000 0.32515  0.38592  0.68997  Biso   1.000  O
  O24      1.0000 0.82202  0.88058  0.69058  Biso   1.000  O
  O25      1.0000 0.08228  0.44169  0.35258  Biso   1.000  O
  O26      1.0000 0.58228  0.94169  0.35258  Biso   1.000  O
  O27      1.0000 0.10714  0.91683  0.47966  Biso   1.000  O
  O28      1.0000 0.60715  0.41683  0.47966  Biso   1.000  O
  O29      1.0000 0.11322  0.37868  0.60926  Biso   1.000  O
  O30      1.0000 0.61957  0.87726  0.60898  Biso   1.000  O
  O31      1.0000 0.16843  0.86207  0.73112  Biso   1.000  O
  O32      1.0000 0.06602  0.63082  0.26942  Biso   1.000  O
  O33      1.0000 0.56602  0.13082  0.26942  Biso   1.000  O
  O34      1.0000 0.09088  0.10596  0.39651  Biso   1.000  O
  O35      1.0000 0.59088  0.60596  0.39651  Biso   1.000  O
  O36      1.0000 0.11529  0.58142  0.52459  Biso   1.000  O
  O37      1.0000 0.61578  0.08190  0.52366  Biso   1.000  O
  O38      1.0000 0.14346  0.05522  0.65038  Biso   1.000  O
  O39      1.0000 0.64461  0.55231  0.65425  Biso   1.000  O
  O40      1.0000 0.41939  0.62314  0.30865  Biso   1.000  O
  O41      1.0000 0.91940  0.12314  0.30865  Biso   1.000  O
  O42      1.0000 0.44427  0.09828  0.43573  Biso   1.000  O
  O43      1.0000 0.94426  0.59828  0.43573  Biso   1.000  O
  O44      1.0000 0.46318  0.57321  0.56229  Biso   1.000  O
  O45      1.0000 0.96133  0.07360  0.56244  Biso   1.000  O
  O46      1.0000 0.49109  0.05722  0.69135  Biso   1.000  O
  O47      1.0000 0.98765  0.54765  0.69113  Biso   1.000  O
