data_image0
_cell_length_a       4.88305
_cell_length_b       5.1456
_cell_length_c       103.795
_cell_angle_alpha    90
_cell_angle_beta     90
_cell_angle_gamma    61.674

loop_
  _atom_site_label
  _atom_site_occupancy
  _atom_site_fract_x
  _atom_site_fract_y
  _atom_site_fract_z
  _atom_site_thermal_displace_type
  _atom_site_B_iso_or_equiv
  _atom_site_type_symbol
  O1       1.0000 0.90349  0.84734  0.07708  Biso   1.000  O
  Ir1      1.0000 0.11954  0.06954  0.08078  Biso   1.000  Ir
  O2       1.0000 0.33560  0.29173  0.08449  Biso   1.000  O
  O3       1.0000 0.43515  0.74690  0.09046  Biso   1.000  O
  O4       1.0000 0.88043  0.20206  0.09644  Biso   1.000  O
  Ir2      1.0000 0.44218  0.42426  0.10014  Biso   1.000  Ir
  O5       1.0000 0.00394  0.64645  0.10385  Biso   1.000  O
  O6       1.0000 0.44919  0.10162  0.10982  Biso   1.000  O
  O7       1.0000 0.54877  0.55679  0.11579  Biso   1.000  O
  Ir3      1.0000 0.76482  0.77898  0.11950  Biso   1.000  Ir
  O8       1.0000 0.98088  0.00118  0.12321  Biso   1.000  O
  O9       1.0000 0.08043  0.45634  0.12918  Biso   1.000  O
  O10      1.0000 0.52571  0.91151  0.13515  Biso   1.000  O
  Ir4      1.0000 0.08746  0.13371  0.13886  Biso   1.000  Ir
  O11      1.0000 0.64922  0.35590  0.14257  Biso   1.000  O
  O12      1.0000 0.09447  0.81107  0.14854  Biso   1.000  O
  O13      1.0000 0.19405  0.26624  0.15451  Biso   1.000  O
  Ir5      1.0000 0.41010  0.48843  0.15822  Biso   1.000  Ir
  O14      1.0000 0.62615  0.71063  0.16192  Biso   1.000  O
  O15      1.0000 0.72570  0.16579  0.16790  Biso   1.000  O
  O16      1.0000 0.17099  0.62096  0.17387  Biso   1.000  O
  Ir6      1.0000 0.73273  0.84315  0.17758  Biso   1.000  Ir
  O17      1.0000 0.29449  0.06534  0.18129  Biso   1.000  O
  O18      1.0000 0.73974  0.52051  0.18726  Biso   1.000  O
  O19      1.0000 0.83932  0.97568  0.19323  Biso   1.000  O
  Ir7      1.0000 0.05537  0.19788  0.19694  Biso   1.000  Ir
  O20      1.0000 0.27143  0.42007  0.20064  Biso   1.000  O
  O21      1.0000 0.37098  0.87524  0.20662  Biso   1.000  O
  O22      1.0000 0.81626  0.33040  0.21259  Biso   1.000  O
  Ir8      1.0000 0.37801  0.55260  0.21630  Biso   1.000  Ir
  O23      1.0000 0.93977  0.77479  0.22000  Biso   1.000  O
  O24      1.0000 0.38502  0.22996  0.22598  Biso   1.000  O
  O25      1.0000 0.48460  0.68513  0.23195  Biso   1.000  O
  Ir9      1.0000 0.70065  0.90732  0.23566  Biso   1.000  Ir
  O26      1.0000 0.91671  0.12952  0.23936  Biso   1.000  O
  O27      1.0000 0.01626  0.58468  0.24534  Biso   1.000  O
  O28      1.0000 0.46154  0.03985  0.25131  Biso   1.000  O
  Ir10     1.0000 0.02329  0.26205  0.25502  Biso   1.000  Ir
  O29      1.0000 0.58505  0.48424  0.25872  Biso   1.000  O
  O30      1.0000 0.03030  0.93941  0.26470  Biso   1.000  O
  O31      1.0000 0.12988  0.39458  0.27067  Biso   1.000  O
  Ir11     1.0000 0.34593  0.61677  0.27438  Biso   1.000  Ir
  O32      1.0000 0.56198  0.83897  0.27808  Biso   1.000  O
  O33      1.0000 0.66153  0.29413  0.28406  Biso   1.000  O
  O34      1.0000 0.10682  0.74930  0.29003  Biso   1.000  O
  Ir12     1.0000 0.66856  0.97149  0.29374  Biso   1.000  Ir
  O35      1.0000 0.23032  0.19368  0.29744  Biso   1.000  O
  O36      1.0000 0.67557  0.64885  0.30342  Biso   1.000  O
  O37      1.0000 0.77515  0.10402  0.30939  Biso   1.000  O
  Ir13     1.0000 0.99120  0.32622  0.31310  Biso   1.000  Ir
  O38      1.0000 0.20726  0.54841  0.31680  Biso   1.000  O
  O39      1.0000 0.30681  0.00358  0.32278  Biso   1.000  O
  O40      1.0000 0.75209  0.45874  0.32875  Biso   1.000  O
  Ir14     1.0000 0.31384  0.68094  0.33246  Biso   1.000  Ir
  O41      1.0000 0.87560  0.90313  0.33616  Biso   1.000  O
  O42      1.0000 0.32085  0.35830  0.34214  Biso   1.000  O
  O43      1.0000 0.42043  0.81347  0.34811  Biso   1.000  O
  Ir15     1.0000 0.63648  0.03566  0.35182  Biso   1.000  Ir
  O44      1.0000 0.85254  0.25786  0.35552  Biso   1.000  O
  O45      1.0000 0.95209  0.71302  0.36150  Biso   1.000  O
  O46      1.0000 0.39737  0.16819  0.36747  Biso   1.000  O
  Ir16     1.0000 0.95912  0.39039  0.37118  Biso   1.000  Ir
  O47      1.0000 0.52088  0.61258  0.37488  Biso   1.000  O
  O48      1.0000 0.96613  0.06775  0.38086  Biso   1.000  O
  O49      1.0000 0.06571  0.52292  0.38683  Biso   1.000  O
  Ir17     1.0000 0.28176  0.74511  0.39054  Biso   1.000  Ir
  O50      1.0000 0.49781  0.96731  0.39424  Biso   1.000  O
  O51      1.0000 0.59736  0.42247  0.40021  Biso   1.000  O
  O52      1.0000 0.04265  0.87764  0.40619  Biso   1.000  O
  Ir18     1.0000 0.60439  0.09983  0.40989  Biso   1.000  Ir
  O53      1.0000 0.16615  0.32202  0.41360  Biso   1.000  O
  O54      1.0000 0.61140  0.77719  0.41957  Biso   1.000  O
  O55      1.0000 0.71098  0.23236  0.42555  Biso   1.000  O
  Ir19     1.0000 0.92703  0.45456  0.42925  Biso   1.000  Ir
  O56      1.0000 0.14309  0.67675  0.43296  Biso   1.000  O
  O57      1.0000 0.24264  0.13192  0.43893  Biso   1.000  O
  O58      1.0000 0.68792  0.58708  0.44491  Biso   1.000  O
  Ir20     1.0000 0.24967  0.80928  0.44861  Biso   1.000  Ir
  O59      1.0000 0.81143  0.03147  0.45232  Biso   1.000  O
  O60      1.0000 0.25668  0.48664  0.45829  Biso   1.000  O
  O61      1.0000 0.35626  0.94181  0.46427  Biso   1.000  O
  Ir21     1.0000 0.57231  0.16400  0.46797  Biso   1.000  Ir
  O62      1.0000 0.78837  0.38620  0.47168  Biso   1.000  O
  O63      1.0000 0.88792  0.84136  0.47765  Biso   1.000  O
  O64      1.0000 0.33320  0.29653  0.48363  Biso   1.000  O
  Ir22     1.0000 0.89495  0.51873  0.48733  Biso   1.000  Ir
  O65      1.0000 0.45671  0.74092  0.49104  Biso   1.000  O
  O66      1.0000 0.90196  0.19609  0.49701  Biso   1.000  O
  O67      1.0000 0.00154  0.65126  0.50299  Biso   1.000  O
  Ir23     1.0000 0.21759  0.87345  0.50669  Biso   1.000  Ir
  O68      1.0000 0.43364  0.09565  0.51040  Biso   1.000  O
  O69      1.0000 0.53319  0.55081  0.51637  Biso   1.000  O
  O70      1.0000 0.97848  0.00597  0.52235  Biso   1.000  O
  Ir24     1.0000 0.54022  0.22817  0.52605  Biso   1.000  Ir
  O71      1.0000 0.10198  0.45036  0.52976  Biso   1.000  O
  O72      1.0000 0.54723  0.90553  0.53573  Biso   1.000  O
  O73      1.0000 0.64681  0.36070  0.54171  Biso   1.000  O
  Ir25     1.0000 0.86286  0.58290  0.54541  Biso   1.000  Ir
  O74      1.0000 0.07892  0.80509  0.54912  Biso   1.000  O
  O75      1.0000 0.17847  0.26026  0.55509  Biso   1.000  O
  O76      1.0000 0.62375  0.71542  0.56107  Biso   1.000  O
  Ir26     1.0000 0.18550  0.93762  0.56477  Biso   1.000  Ir
  O77      1.0000 0.74726  0.15981  0.56848  Biso   1.000  O
  O78      1.0000 0.19251  0.61498  0.57445  Biso   1.000  O
  O79      1.0000 0.29209  0.07015  0.58043  Biso   1.000  O
  Ir27     1.0000 0.50814  0.29234  0.58413  Biso   1.000  Ir
  O80      1.0000 0.72420  0.51454  0.58784  Biso   1.000  O
  O81      1.0000 0.82375  0.96970  0.59381  Biso   1.000  O
  O82      1.0000 0.26903  0.42487  0.59979  Biso   1.000  O
  Ir28     1.0000 0.83078  0.64707  0.60349  Biso   1.000  Ir
  O83      1.0000 0.39254  0.86926  0.60720  Biso   1.000  O
  O84      1.0000 0.83779  0.32443  0.61317  Biso   1.000  O
  O85      1.0000 0.93737  0.77960  0.61914  Biso   1.000  O
  Ir29     1.0000 0.15342  0.00179  0.62285  Biso   1.000  Ir
  O86      1.0000 0.36947  0.22399  0.62656  Biso   1.000  O
  O87      1.0000 0.46902  0.67915  0.63253  Biso   1.000  O
  O88      1.0000 0.91431  0.13431  0.63851  Biso   1.000  O
  Ir30     1.0000 0.47605  0.35651  0.64221  Biso   1.000  Ir
  O89      1.0000 0.03781  0.57870  0.64592  Biso   1.000  O
  O90      1.0000 0.48306  0.03387  0.65189  Biso   1.000  O
  O91      1.0000 0.58264  0.48904  0.65786  Biso   1.000  O
  Ir31     1.0000 0.79869  0.71124  0.66157  Biso   1.000  Ir
  O92      1.0000 0.01475  0.93343  0.66527  Biso   1.000  O
  O93      1.0000 0.11430  0.38860  0.67125  Biso   1.000  O
  O94      1.0000 0.55958  0.84376  0.67722  Biso   1.000  O
  Ir32     1.0000 0.12133  0.06596  0.68093  Biso   1.000  Ir
  O95      1.0000 0.68309  0.28815  0.68464  Biso   1.000  O
  O96      1.0000 0.12834  0.74332  0.69061  Biso   1.000  O
  O97      1.0000 0.22792  0.19849  0.69658  Biso   1.000  O
  Ir33     1.0000 0.44397  0.42068  0.70029  Biso   1.000  Ir
  O98      1.0000 0.66003  0.64288  0.70399  Biso   1.000  O
  O99      1.0000 0.75958  0.09804  0.70997  Biso   1.000  O
  O100     1.0000 0.20486  0.55321  0.71594  Biso   1.000  O
  Ir34     1.0000 0.76661  0.77541  0.71965  Biso   1.000  Ir
  O101     1.0000 0.32837  0.99760  0.72335  Biso   1.000  O
  O102     1.0000 0.77362  0.45277  0.72933  Biso   1.000  O
  O103     1.0000 0.87320  0.90794  0.73530  Biso   1.000  O
  Ir35     1.0000 0.08925  0.13013  0.73901  Biso   1.000  Ir
  O104     1.0000 0.30530  0.35233  0.74271  Biso   1.000  O
  O105     1.0000 0.40485  0.80749  0.74869  Biso   1.000  O
  O106     1.0000 0.85014  0.26265  0.75466  Biso   1.000  O
  Ir36     1.0000 0.41188  0.48485  0.75837  Biso   1.000  Ir
  O107     1.0000 0.97364  0.70704  0.76207  Biso   1.000  O
  O108     1.0000 0.41889  0.16221  0.76805  Biso   1.000  O
  O109     1.0000 0.51847  0.61738  0.77402  Biso   1.000  O
  Ir37     1.0000 0.73452  0.83958  0.77773  Biso   1.000  Ir
  O110     1.0000 0.95058  0.06177  0.78143  Biso   1.000  O
  O111     1.0000 0.05013  0.51694  0.78741  Biso   1.000  O
  O112     1.0000 0.49541  0.97210  0.79338  Biso   1.000  O
  Ir38     1.0000 0.05716  0.19430  0.79709  Biso   1.000  Ir
  O113     1.0000 0.61892  0.41649  0.80079  Biso   1.000  O
  O114     1.0000 0.06417  0.87166  0.80677  Biso   1.000  O
  O115     1.0000 0.16375  0.32683  0.81274  Biso   1.000  O
  Ir39     1.0000 0.37980  0.54902  0.81645  Biso   1.000  Ir
  O116     1.0000 0.59586  0.77122  0.82015  Biso   1.000  O
  O117     1.0000 0.69541  0.22638  0.82613  Biso   1.000  O
  O118     1.0000 0.14069  0.68155  0.83210  Biso   1.000  O
  Ir40     1.0000 0.70244  0.90375  0.83581  Biso   1.000  Ir
  O119     1.0000 0.26420  0.12594  0.83951  Biso   1.000  O
  O120     1.0000 0.70945  0.58111  0.84549  Biso   1.000  O
  O121     1.0000 0.80903  0.03628  0.85146  Biso   1.000  O
  Ir41     1.0000 0.02508  0.25847  0.85517  Biso   1.000  Ir
  O122     1.0000 0.24113  0.48067  0.85887  Biso   1.000  O
  O123     1.0000 0.34068  0.93583  0.86485  Biso   1.000  O
  O124     1.0000 0.78597  0.39099  0.87082  Biso   1.000  O
  Ir42     1.0000 0.34771  0.61319  0.87453  Biso   1.000  Ir
  O125     1.0000 0.90947  0.83538  0.87823  Biso   1.000  O
  O126     1.0000 0.35472  0.29055  0.88421  Biso   1.000  O
  O127     1.0000 0.45430  0.74572  0.89018  Biso   1.000  O
  Ir43     1.0000 0.67035  0.96792  0.89389  Biso   1.000  Ir
  O128     1.0000 0.88641  0.19011  0.89759  Biso   1.000  O
  O129     1.0000 0.98596  0.64528  0.90357  Biso   1.000  O
  O130     1.0000 0.43124  0.10044  0.90954  Biso   1.000  O
  Ir44     1.0000 0.99299  0.32264  0.91324  Biso   1.000  Ir
  O131     1.0000 0.55475  0.54483  0.91695  Biso   1.000  O
  O132     1.0000 0.00000  0.00000  0.92292  Biso   1.000  O
