data_image0
_cell_length_a       8.61194
_cell_length_b       5.1456
_cell_length_c       27.6767
_cell_angle_alpha    90
_cell_angle_beta     90
_cell_angle_gamma    93.4064

_symmetry_space_group_name_H-M    "P 1"
_symmetry_int_tables_number       1

loop_
  _symmetry_equiv_pos_as_xyz
  'x, y, z'

loop_
  _atom_site_label
  _atom_site_occupancy
  _atom_site_fract_x
  _atom_site_fract_y
  _atom_site_fract_z
  _atom_site_thermal_displace_type
  _atom_site_B_iso_or_equiv
  _atom_site_type_symbol
  O1       1.0000 0.61912  0.78483  0.27099  Biso   1.000  O
  O2       1.0000 0.11912  0.28484  0.27099  Biso   1.000  O
  O3       1.0000 0.56935  0.27989  0.29339  Biso   1.000  O
  O4       1.0000 0.06935  0.77990  0.29339  Biso   1.000  O
  O5       1.0000 0.85329  0.11945  0.32119  Biso   1.000  O
  O6       1.0000 0.35329  0.61946  0.32119  Biso   1.000  O
  O7       1.0000 0.30350  0.11449  0.34360  Biso   1.000  O
  O8       1.0000 0.80350  0.61450  0.34360  Biso   1.000  O
  O9       1.0000 0.58087  0.93669  0.36600  Biso   1.000  O
  O10      1.0000 0.08088  0.43670  0.36600  Biso   1.000  O
  O11      1.0000 0.51913  0.43056  0.39379  Biso   1.000  O
  O12      1.0000 0.01914  0.93057  0.39379  Biso   1.000  O
  O13      1.0000 0.29648  0.75275  0.41619  Biso   1.000  O
  O14      1.0000 0.79648  0.25276  0.41619  Biso   1.000  O
  O15      1.0000 0.74670  0.74781  0.43860  Biso   1.000  O
  O16      1.0000 0.24670  0.24780  0.43860  Biso   1.000  O
  O17      1.0000 0.53065  0.08737  0.46640  Biso   1.000  O
  O18      1.0000 0.03065  0.58738  0.46640  Biso   1.000  O
  O19      1.0000 0.48087  0.58241  0.48880  Biso   1.000  O
  O20      1.0000 0.98087  0.08240  0.48880  Biso   1.000  O
  O21      1.0000 0.25840  0.90298  0.51131  Biso   1.000  O
  O22      1.0000 0.75856  0.40265  0.51113  Biso   1.000  O
  O23      1.0000 0.69634  0.89882  0.54001  Biso   1.000  O
  O24      1.0000 0.19677  0.40125  0.53922  Biso   1.000  O
  O25      1.0000 0.47142  0.21883  0.56150  Biso   1.000  O
  O26      1.0000 0.97012  0.72240  0.56066  Biso   1.000  O
  O27      1.0000 0.42236  0.71238  0.58381  Biso   1.000  O
  O28      1.0000 0.92492  0.22120  0.58401  Biso   1.000  O
  O29      1.0000 0.20520  0.05731  0.61068  Biso   1.000  O
  O30      1.0000 0.71324  0.55150  0.61265  Biso   1.000  O
  O31      1.0000 0.66066  0.04988  0.63338  Biso   1.000  O
  O32      1.0000 0.15871  0.54582  0.63499  Biso   1.000  O
  O33      1.0000 0.44142  0.36513  0.65545  Biso   1.000  O
  O34      1.0000 0.94998  0.87652  0.65326  Biso   1.000  O
  O35      1.0000 0.36485  0.84442  0.68009  Biso   1.000  O
  O36      1.0000 0.85259  0.31035  0.68870  Biso   1.000  O
  O37      1.0000 0.64840  0.69512  0.70398  Biso   1.000  O
  O38      1.0000 0.15165  0.17381  0.70861  Biso   1.000  O
  O39      1.0000 0.58029  0.18215  0.72887  Biso   1.000  O
  O40      1.0000 0.09362  0.68831  0.73155  Biso   1.000  O
  O41      1.0000 0.68079  0.19599  0.76955  Biso   1.000  O
  Ir1      1.0000 0.46131  0.94967  0.30728  Biso   1.000  Ir
  Ir2      1.0000 0.96133  0.44968  0.30728  Biso   1.000  Ir
  Ir3      1.0000 0.80001  0.93362  0.37989  Biso   1.000  Ir
  Ir4      1.0000 0.30001  0.43363  0.37989  Biso   1.000  Ir
  Ir5      1.0000 0.13868  0.91758  0.45249  Biso   1.000  Ir
  Ir6      1.0000 0.63868  0.41759  0.45249  Biso   1.000  Ir
  Ir7      1.0000 0.47778  0.90140  0.52548  Biso   1.000  Ir
  Ir8      1.0000 0.97840  0.40321  0.52521  Biso   1.000  Ir
  Ir9      1.0000 0.81622  0.89080  0.59864  Biso   1.000  Ir
  Ir10     1.0000 0.31346  0.38397  0.59866  Biso   1.000  Ir
  Ir11     1.0000 0.16512  0.88125  0.67419  Biso   1.000  Ir
  Ir12     1.0000 0.66146  0.39220  0.67453  Biso   1.000  Ir
  H1       1.0000 0.65055  0.02651  0.78433  Biso   1.000  H
  H2       1.0000 0.08459  0.81887  0.75703  Biso   1.000  H
