data_image0
_cell_length_a       8.45769
_cell_length_b       4.88305
_cell_length_c       27.9135
_cell_angle_alpha    90
_cell_angle_beta     90
_cell_angle_gamma    90

_symmetry_space_group_name_H-M    "P 1"
_symmetry_int_tables_number       1

loop_
  _symmetry_equiv_pos_as_xyz
  'x, y, z'

loop_
  _atom_site_label
  _atom_site_occupancy
  _atom_site_fract_x
  _atom_site_fract_y
  _atom_site_fract_z
  _atom_site_thermal_displace_type
  _atom_site_B_iso_or_equiv
  _atom_site_type_symbol
  Ir1      1.0000 0.66920  0.07538  0.53915  Biso   1.000  Ir
  Ir2      1.0000 0.17047  0.58057  0.53837  Biso   1.000  Ir
  Ir3      1.0000 0.00309  0.07715  0.38434  Biso   1.000  Ir
  Ir4      1.0000 0.50309  0.57715  0.38434  Biso   1.000  Ir
  Ir5      1.0000 0.33866  0.06781  0.70268  Biso   1.000  Ir
  Ir6      1.0000 0.84796  0.59611  0.69582  Biso   1.000  Ir
  Ir7      1.0000 0.66976  0.07715  0.30723  Biso   1.000  Ir
  Ir8      1.0000 0.16976  0.57715  0.30723  Biso   1.000  Ir
  Ir9      1.0000 0.49875  0.56828  0.61743  Biso   1.000  Ir
  Ir10     1.0000 0.00360  0.08819  0.61586  Biso   1.000  Ir
  Ir11     1.0000 0.33642  0.07715  0.46144  Biso   1.000  Ir
  Ir12     1.0000 0.83642  0.57715  0.46144  Biso   1.000  Ir
  O1       1.0000 0.66007  0.39896  0.57820  Biso   1.000  O
  O2       1.0000 0.16060  0.90376  0.57694  Biso   1.000  O
  O3       1.0000 0.49692  0.90430  0.42290  Biso   1.000  O
  O4       1.0000 0.99691  0.40430  0.42290  Biso   1.000  O
  O5       1.0000 0.33024  0.40430  0.26869  Biso   1.000  O
  O6       1.0000 0.83024  0.90430  0.26869  Biso   1.000  O
  O7       1.0000 0.48208  0.23760  0.65424  Biso   1.000  O
  O8       1.0000 0.99329  0.74106  0.65260  Biso   1.000  O
  O9       1.0000 0.33024  0.75000  0.49999  Biso   1.000  O
  O10      1.0000 0.83024  0.25000  0.49999  Biso   1.000  O
  O11      1.0000 0.66357  0.75000  0.34578  Biso   1.000  O
  O12      1.0000 0.16356  0.25000  0.34578  Biso   1.000  O
  O13      1.0000 0.51330  0.89543  0.57818  Biso   1.000  O
  O14      1.0000 0.00849  0.40920  0.57793  Biso   1.000  O
  O15      1.0000 0.34261  0.40430  0.42290  Biso   1.000  O
  O16      1.0000 0.84261  0.90430  0.42290  Biso   1.000  O
  O17      1.0000 0.17593  0.90430  0.26869  Biso   1.000  O
  O18      1.0000 0.67594  0.40430  0.26869  Biso   1.000  O
  O19      1.0000 0.34691  0.75254  0.65634  Biso   1.000  O
  O20      1.0000 0.83551  0.23742  0.65249  Biso   1.000  O
  O21      1.0000 0.17595  0.25000  0.49999  Biso   1.000  O
  O22      1.0000 0.67594  0.75000  0.49999  Biso   1.000  O
  O23      1.0000 0.50927  0.25000  0.34578  Biso   1.000  O
  O24      1.0000 0.00927  0.75000  0.34578  Biso   1.000  O
  O25      1.0000 0.84122  0.92564  0.57573  Biso   1.000  O
  O26      1.0000 0.33584  0.42349  0.57723  Biso   1.000  O
  O27      1.0000 0.16976  0.92284  0.42290  Biso   1.000  O
  O28      1.0000 0.66976  0.42284  0.42290  Biso   1.000  O
  O29      1.0000 0.50309  0.92284  0.26869  Biso   1.000  O
  O30      1.0000 0.00309  0.42284  0.26869  Biso   1.000  O
  O31      1.0000 0.16450  0.22079  0.65527  Biso   1.000  O
  O32      1.0000 0.66983  0.69168  0.65837  Biso   1.000  O
  O33      1.0000 0.50309  0.23144  0.49999  Biso   1.000  O
  O34      1.0000 0.00309  0.73144  0.49999  Biso   1.000  O
  O35      1.0000 0.83642  0.23144  0.34578  Biso   1.000  O
  O36      1.0000 0.33642  0.73144  0.34578  Biso   1.000  O
  O37      1.0000 0.33714  0.39150  0.73073  Biso   1.000  O
  O38      1.0000 0.78205  0.80525  0.74282  Biso   1.000  O
  O39      1.0000 0.17476  0.91323  0.73042  Biso   1.000  O
  O40      1.0000 0.49427  0.91063  0.73431  Biso   1.000  O
  O41      1.0000 0.97041  0.37523  0.72827  Biso   1.000  O
