data_image0
_cell_length_a       9.5682
_cell_length_b       12.8411
_cell_length_c       40.398
_cell_angle_alpha    90
_cell_angle_beta     90
_cell_angle_gamma    90

_symmetry_space_group_name_H-M    "P 1"
_symmetry_int_tables_number       1

loop_
  _symmetry_equiv_pos_as_xyz
  'x, y, z'

loop_
  _atom_site_label
  _atom_site_occupancy
  _atom_site_fract_x
  _atom_site_fract_y
  _atom_site_fract_z
  _atom_site_thermal_displace_type
  _atom_site_B_iso_or_equiv
  _atom_site_type_symbol
  Ir1      1.0000 0.16667  0.00000  0.19803  Biso   1.000  Ir
  O1       1.0000 0.16667  0.15000  0.19803  Biso   1.000  O
  Ir2      1.0000 0.00000  0.25000  0.19803  Biso   1.000  Ir
  O2       1.0000 0.16667  0.35000  0.19803  Biso   1.000  O
  O3       1.0000 0.00000  0.00000  0.22982  Biso   1.000  O
  O4       1.0000 0.00000  0.25000  0.24571  Biso   1.000  O
  Ir3      1.0000 0.00000  0.00000  0.27750  Biso   1.000  Ir
  O5       1.0000 0.16667  0.10000  0.27750  Biso   1.000  O
  Ir4      1.0000 0.16667  0.25000  0.27750  Biso   1.000  Ir
  O6       1.0000 0.16667  0.40000  0.27750  Biso   1.000  O
  O7       1.0000 0.00000  0.25000  0.30928  Biso   1.000  O
  O8       1.0000 0.00000  0.00000  0.32517  Biso   1.000  O
  Ir5      1.0000 0.16667  0.00000  0.35696  Biso   1.000  Ir
  O9       1.0000 0.16667  0.15000  0.35696  Biso   1.000  O
  Ir6      1.0000 0.00000  0.25000  0.35696  Biso   1.000  Ir
  O10      1.0000 0.16667  0.35000  0.35696  Biso   1.000  O
  O11      1.0000 0.00000  0.00000  0.38875  Biso   1.000  O
  O12      1.0000 0.00000  0.25000  0.40464  Biso   1.000  O
  Ir7      1.0000 0.00000  0.00000  0.43643  Biso   1.000  Ir
  O13      1.0000 0.16667  0.10000  0.43643  Biso   1.000  O
  Ir8      1.0000 0.16667  0.25000  0.43643  Biso   1.000  Ir
  O14      1.0000 0.16667  0.40000  0.43643  Biso   1.000  O
  O15      1.0000 0.00000  0.25000  0.46821  Biso   1.000  O
  O16      1.0000 0.00000  0.00000  0.48411  Biso   1.000  O
  Ir9      1.0000 0.16667  0.00000  0.51589  Biso   1.000  Ir
  O17      1.0000 0.16667  0.15000  0.51589  Biso   1.000  O
  Ir10     1.0000 0.00000  0.25000  0.51589  Biso   1.000  Ir
  O18      1.0000 0.16667  0.35000  0.51589  Biso   1.000  O
  O19      1.0000 0.00000  0.00000  0.54768  Biso   1.000  O
  O20      1.0000 0.00000  0.25000  0.56357  Biso   1.000  O
  Ir11     1.0000 0.00000  0.00000  0.59536  Biso   1.000  Ir
  O21      1.0000 0.16667  0.10000  0.59536  Biso   1.000  O
  Ir12     1.0000 0.16667  0.25000  0.59536  Biso   1.000  Ir
  O22      1.0000 0.16667  0.40000  0.59536  Biso   1.000  O
  O23      1.0000 0.00000  0.25000  0.62715  Biso   1.000  O
  O24      1.0000 0.00000  0.00000  0.64304  Biso   1.000  O
  Ir13     1.0000 0.16667  0.00000  0.67483  Biso   1.000  Ir
  O25      1.0000 0.16667  0.15000  0.67483  Biso   1.000  O
  Ir14     1.0000 0.00000  0.25000  0.67483  Biso   1.000  Ir
  O26      1.0000 0.16667  0.35000  0.67483  Biso   1.000  O
  O27      1.0000 0.00000  0.00000  0.70661  Biso   1.000  O
  O28      1.0000 0.00000  0.25000  0.72250  Biso   1.000  O
  Ir15     1.0000 0.00000  0.00000  0.75429  Biso   1.000  Ir
  O29      1.0000 0.16667  0.10000  0.75429  Biso   1.000  O
  Ir16     1.0000 0.16667  0.25000  0.75429  Biso   1.000  Ir
  O30      1.0000 0.16667  0.40000  0.75429  Biso   1.000  O
  O31      1.0000 0.00000  0.25000  0.78608  Biso   1.000  O
  O32      1.0000 0.00000  0.00000  0.80197  Biso   1.000  O
  Ir17     1.0000 0.16667  0.50000  0.19803  Biso   1.000  Ir
  O33      1.0000 0.16667  0.65000  0.19803  Biso   1.000  O
  Ir18     1.0000 0.00000  0.75000  0.19803  Biso   1.000  Ir
  O34      1.0000 0.16667  0.85000  0.19803  Biso   1.000  O
  O35      1.0000 0.00000  0.50000  0.22982  Biso   1.000  O
  O36      1.0000 0.00000  0.75000  0.24571  Biso   1.000  O
  Ir19     1.0000 0.00000  0.50000  0.27750  Biso   1.000  Ir
  O37      1.0000 0.16667  0.60000  0.27750  Biso   1.000  O
  Ir20     1.0000 0.16667  0.75000  0.27750  Biso   1.000  Ir
  O38      1.0000 0.16667  0.90000  0.27750  Biso   1.000  O
  O39      1.0000 0.00000  0.75000  0.30928  Biso   1.000  O
  O40      1.0000 0.00000  0.50000  0.32517  Biso   1.000  O
  Ir21     1.0000 0.16667  0.50000  0.35696  Biso   1.000  Ir
  O41      1.0000 0.16667  0.65000  0.35696  Biso   1.000  O
  Ir22     1.0000 0.00000  0.75000  0.35696  Biso   1.000  Ir
  O42      1.0000 0.16667  0.85000  0.35696  Biso   1.000  O
  O43      1.0000 0.00000  0.50000  0.38875  Biso   1.000  O
  O44      1.0000 0.00000  0.75000  0.40464  Biso   1.000  O
  Ir23     1.0000 0.00000  0.50000  0.43643  Biso   1.000  Ir
  O45      1.0000 0.16667  0.60000  0.43643  Biso   1.000  O
  Ir24     1.0000 0.16667  0.75000  0.43643  Biso   1.000  Ir
  O46      1.0000 0.16667  0.90000  0.43643  Biso   1.000  O
  O47      1.0000 0.00000  0.75000  0.46821  Biso   1.000  O
  O48      1.0000 0.00000  0.50000  0.48411  Biso   1.000  O
  Ir25     1.0000 0.16667  0.50000  0.51589  Biso   1.000  Ir
  O49      1.0000 0.16667  0.65000  0.51589  Biso   1.000  O
  Ir26     1.0000 0.00000  0.75000  0.51589  Biso   1.000  Ir
  O50      1.0000 0.16667  0.85000  0.51589  Biso   1.000  O
  O51      1.0000 0.00000  0.50000  0.54768  Biso   1.000  O
  O52      1.0000 0.00000  0.75000  0.56357  Biso   1.000  O
  Ir27     1.0000 0.00000  0.50000  0.59536  Biso   1.000  Ir
  O53      1.0000 0.16667  0.60000  0.59536  Biso   1.000  O
  Ir28     1.0000 0.16667  0.75000  0.59536  Biso   1.000  Ir
  O54      1.0000 0.16667  0.90000  0.59536  Biso   1.000  O
  O55      1.0000 0.00000  0.75000  0.62715  Biso   1.000  O
  O56      1.0000 0.00000  0.50000  0.64304  Biso   1.000  O
  Ir29     1.0000 0.16667  0.50000  0.67483  Biso   1.000  Ir
  O57      1.0000 0.16667  0.65000  0.67483  Biso   1.000  O
  Ir30     1.0000 0.00000  0.75000  0.67483  Biso   1.000  Ir
  O58      1.0000 0.16667  0.85000  0.67483  Biso   1.000  O
  O59      1.0000 0.00000  0.50000  0.70661  Biso   1.000  O
  O60      1.0000 0.00000  0.75000  0.72250  Biso   1.000  O
  Ir31     1.0000 0.00000  0.50000  0.75429  Biso   1.000  Ir
  O61      1.0000 0.16667  0.60000  0.75429  Biso   1.000  O
  Ir32     1.0000 0.16667  0.75000  0.75429  Biso   1.000  Ir
  O62      1.0000 0.16667  0.90000  0.75429  Biso   1.000  O
  O63      1.0000 0.00000  0.75000  0.78608  Biso   1.000  O
  O64      1.0000 0.00000  0.50000  0.80197  Biso   1.000  O
  Ir33     1.0000 0.50000  0.00000  0.19803  Biso   1.000  Ir
  O65      1.0000 0.50000  0.15000  0.19803  Biso   1.000  O
  Ir34     1.0000 0.33333  0.25000  0.19803  Biso   1.000  Ir
  O66      1.0000 0.50000  0.35000  0.19803  Biso   1.000  O
  O67      1.0000 0.33333  0.00000  0.22982  Biso   1.000  O
  O68      1.0000 0.33333  0.25000  0.24571  Biso   1.000  O
  Ir35     1.0000 0.33333  0.00000  0.27750  Biso   1.000  Ir
  O69      1.0000 0.50000  0.10000  0.27750  Biso   1.000  O
  Ir36     1.0000 0.50000  0.25000  0.27750  Biso   1.000  Ir
  O70      1.0000 0.50000  0.40000  0.27750  Biso   1.000  O
  O71      1.0000 0.33333  0.25000  0.30928  Biso   1.000  O
  O72      1.0000 0.33333  0.00000  0.32517  Biso   1.000  O
  Ir37     1.0000 0.50000  0.00000  0.35696  Biso   1.000  Ir
  O73      1.0000 0.50000  0.15000  0.35696  Biso   1.000  O
  Ir38     1.0000 0.33333  0.25000  0.35696  Biso   1.000  Ir
  O74      1.0000 0.50000  0.35000  0.35696  Biso   1.000  O
  O75      1.0000 0.33333  0.00000  0.38875  Biso   1.000  O
  O76      1.0000 0.33333  0.25000  0.40464  Biso   1.000  O
  Ir39     1.0000 0.33333  0.00000  0.43643  Biso   1.000  Ir
  O77      1.0000 0.50000  0.10000  0.43643  Biso   1.000  O
  Ir40     1.0000 0.50000  0.25000  0.43643  Biso   1.000  Ir
  O78      1.0000 0.50000  0.40000  0.43643  Biso   1.000  O
  O79      1.0000 0.33333  0.25000  0.46821  Biso   1.000  O
  O80      1.0000 0.33333  0.00000  0.48411  Biso   1.000  O
  Ir41     1.0000 0.50000  0.00000  0.51589  Biso   1.000  Ir
  O81      1.0000 0.50000  0.15000  0.51589  Biso   1.000  O
  Ir42     1.0000 0.33333  0.25000  0.51589  Biso   1.000  Ir
  O82      1.0000 0.50000  0.35000  0.51589  Biso   1.000  O
  O83      1.0000 0.33333  0.00000  0.54768  Biso   1.000  O
  O84      1.0000 0.33333  0.25000  0.56357  Biso   1.000  O
  Ir43     1.0000 0.33333  0.00000  0.59536  Biso   1.000  Ir
  O85      1.0000 0.50000  0.10000  0.59536  Biso   1.000  O
  Ir44     1.0000 0.50000  0.25000  0.59536  Biso   1.000  Ir
  O86      1.0000 0.50000  0.40000  0.59536  Biso   1.000  O
  O87      1.0000 0.33333  0.25000  0.62715  Biso   1.000  O
  O88      1.0000 0.33333  0.00000  0.64304  Biso   1.000  O
  Ir45     1.0000 0.50000  0.00000  0.67483  Biso   1.000  Ir
  O89      1.0000 0.50000  0.15000  0.67483  Biso   1.000  O
  Ir46     1.0000 0.33333  0.25000  0.67483  Biso   1.000  Ir
  O90      1.0000 0.50000  0.35000  0.67483  Biso   1.000  O
  O91      1.0000 0.33333  0.00000  0.70661  Biso   1.000  O
  O92      1.0000 0.33333  0.25000  0.72250  Biso   1.000  O
  Ir47     1.0000 0.33333  0.00000  0.75429  Biso   1.000  Ir
  O93      1.0000 0.50000  0.10000  0.75429  Biso   1.000  O
  Ir48     1.0000 0.50000  0.25000  0.75429  Biso   1.000  Ir
  O94      1.0000 0.50000  0.40000  0.75429  Biso   1.000  O
  O95      1.0000 0.33333  0.25000  0.78608  Biso   1.000  O
  O96      1.0000 0.33333  0.00000  0.80197  Biso   1.000  O
  Ir49     1.0000 0.50000  0.50000  0.19803  Biso   1.000  Ir
  O97      1.0000 0.50000  0.65000  0.19803  Biso   1.000  O
  Ir50     1.0000 0.33333  0.75000  0.19803  Biso   1.000  Ir
  O98      1.0000 0.50000  0.85000  0.19803  Biso   1.000  O
  O99      1.0000 0.33333  0.50000  0.22982  Biso   1.000  O
  O100     1.0000 0.33333  0.75000  0.24571  Biso   1.000  O
  Ir51     1.0000 0.33333  0.50000  0.27750  Biso   1.000  Ir
  O101     1.0000 0.50000  0.60000  0.27750  Biso   1.000  O
  Ir52     1.0000 0.50000  0.75000  0.27750  Biso   1.000  Ir
  O102     1.0000 0.50000  0.90000  0.27750  Biso   1.000  O
  O103     1.0000 0.33333  0.75000  0.30928  Biso   1.000  O
  O104     1.0000 0.33333  0.50000  0.32517  Biso   1.000  O
  Ir53     1.0000 0.50000  0.50000  0.35696  Biso   1.000  Ir
  O105     1.0000 0.50000  0.65000  0.35696  Biso   1.000  O
  Ir54     1.0000 0.33333  0.75000  0.35696  Biso   1.000  Ir
  O106     1.0000 0.50000  0.85000  0.35696  Biso   1.000  O
  O107     1.0000 0.33333  0.50000  0.38875  Biso   1.000  O
  O108     1.0000 0.33333  0.75000  0.40464  Biso   1.000  O
  Ir55     1.0000 0.33333  0.50000  0.43643  Biso   1.000  Ir
  O109     1.0000 0.50000  0.60000  0.43643  Biso   1.000  O
  Ir56     1.0000 0.50000  0.75000  0.43643  Biso   1.000  Ir
  O110     1.0000 0.50000  0.90000  0.43643  Biso   1.000  O
  O111     1.0000 0.33333  0.75000  0.46821  Biso   1.000  O
  O112     1.0000 0.33333  0.50000  0.48411  Biso   1.000  O
  Ir57     1.0000 0.50000  0.50000  0.51589  Biso   1.000  Ir
  O113     1.0000 0.50000  0.65000  0.51589  Biso   1.000  O
  Ir58     1.0000 0.33333  0.75000  0.51589  Biso   1.000  Ir
  O114     1.0000 0.50000  0.85000  0.51589  Biso   1.000  O
  O115     1.0000 0.33333  0.50000  0.54768  Biso   1.000  O
  O116     1.0000 0.33333  0.75000  0.56357  Biso   1.000  O
  Ir59     1.0000 0.33333  0.50000  0.59536  Biso   1.000  Ir
  O117     1.0000 0.50000  0.60000  0.59536  Biso   1.000  O
  Ir60     1.0000 0.50000  0.75000  0.59536  Biso   1.000  Ir
  O118     1.0000 0.50000  0.90000  0.59536  Biso   1.000  O
  O119     1.0000 0.33333  0.75000  0.62715  Biso   1.000  O
  O120     1.0000 0.33333  0.50000  0.64304  Biso   1.000  O
  Ir61     1.0000 0.50000  0.50000  0.67483  Biso   1.000  Ir
  O121     1.0000 0.50000  0.65000  0.67483  Biso   1.000  O
  Ir62     1.0000 0.33333  0.75000  0.67483  Biso   1.000  Ir
  O122     1.0000 0.50000  0.85000  0.67483  Biso   1.000  O
  O123     1.0000 0.33333  0.50000  0.70661  Biso   1.000  O
  O124     1.0000 0.33333  0.75000  0.72250  Biso   1.000  O
  Ir63     1.0000 0.33333  0.50000  0.75429  Biso   1.000  Ir
  O125     1.0000 0.50000  0.60000  0.75429  Biso   1.000  O
  Ir64     1.0000 0.50000  0.75000  0.75429  Biso   1.000  Ir
  O126     1.0000 0.50000  0.90000  0.75429  Biso   1.000  O
  O127     1.0000 0.33333  0.75000  0.78608  Biso   1.000  O
  O128     1.0000 0.33333  0.50000  0.80197  Biso   1.000  O
  Ir65     1.0000 0.83333  0.00000  0.19803  Biso   1.000  Ir
  O129     1.0000 0.83333  0.15000  0.19803  Biso   1.000  O
  Ir66     1.0000 0.66667  0.25000  0.19803  Biso   1.000  Ir
  O130     1.0000 0.83333  0.35000  0.19803  Biso   1.000  O
  O131     1.0000 0.66667  0.00000  0.22982  Biso   1.000  O
  O132     1.0000 0.66667  0.25000  0.24571  Biso   1.000  O
  Ir67     1.0000 0.66667  0.00000  0.27750  Biso   1.000  Ir
  O133     1.0000 0.83333  0.10000  0.27750  Biso   1.000  O
  Ir68     1.0000 0.83333  0.25000  0.27750  Biso   1.000  Ir
  O134     1.0000 0.83333  0.40000  0.27750  Biso   1.000  O
  O135     1.0000 0.66667  0.25000  0.30928  Biso   1.000  O
  O136     1.0000 0.66667  0.00000  0.32517  Biso   1.000  O
  Ir69     1.0000 0.83333  0.00000  0.35696  Biso   1.000  Ir
  O137     1.0000 0.83333  0.15000  0.35696  Biso   1.000  O
  Ir70     1.0000 0.66667  0.25000  0.35696  Biso   1.000  Ir
  O138     1.0000 0.83333  0.35000  0.35696  Biso   1.000  O
  O139     1.0000 0.66667  0.00000  0.38875  Biso   1.000  O
  O140     1.0000 0.66667  0.25000  0.40464  Biso   1.000  O
  Ir71     1.0000 0.66667  0.00000  0.43643  Biso   1.000  Ir
  O141     1.0000 0.83333  0.10000  0.43643  Biso   1.000  O
  Ir72     1.0000 0.83333  0.25000  0.43643  Biso   1.000  Ir
  O142     1.0000 0.83333  0.40000  0.43643  Biso   1.000  O
  O143     1.0000 0.66667  0.25000  0.46821  Biso   1.000  O
  O144     1.0000 0.66667  0.00000  0.48411  Biso   1.000  O
  Ir73     1.0000 0.83333  0.00000  0.51589  Biso   1.000  Ir
  O145     1.0000 0.83333  0.15000  0.51589  Biso   1.000  O
  Ir74     1.0000 0.66667  0.25000  0.51589  Biso   1.000  Ir
  O146     1.0000 0.83333  0.35000  0.51589  Biso   1.000  O
  O147     1.0000 0.66667  0.00000  0.54768  Biso   1.000  O
  O148     1.0000 0.66667  0.25000  0.56357  Biso   1.000  O
  Ir75     1.0000 0.66667  0.00000  0.59536  Biso   1.000  Ir
  O149     1.0000 0.83333  0.10000  0.59536  Biso   1.000  O
  Ir76     1.0000 0.83333  0.25000  0.59536  Biso   1.000  Ir
  O150     1.0000 0.83333  0.40000  0.59536  Biso   1.000  O
  O151     1.0000 0.66667  0.25000  0.62715  Biso   1.000  O
  O152     1.0000 0.66667  0.00000  0.64304  Biso   1.000  O
  Ir77     1.0000 0.83333  0.00000  0.67483  Biso   1.000  Ir
  O153     1.0000 0.83333  0.15000  0.67483  Biso   1.000  O
  Ir78     1.0000 0.66667  0.25000  0.67483  Biso   1.000  Ir
  O154     1.0000 0.83333  0.35000  0.67483  Biso   1.000  O
  O155     1.0000 0.66667  0.00000  0.70661  Biso   1.000  O
  O156     1.0000 0.66667  0.25000  0.72250  Biso   1.000  O
  Ir79     1.0000 0.66667  0.00000  0.75429  Biso   1.000  Ir
  O157     1.0000 0.83333  0.10000  0.75429  Biso   1.000  O
  Ir80     1.0000 0.83333  0.25000  0.75429  Biso   1.000  Ir
  O158     1.0000 0.83333  0.40000  0.75429  Biso   1.000  O
  O159     1.0000 0.66667  0.25000  0.78608  Biso   1.000  O
  O160     1.0000 0.66667  0.00000  0.80197  Biso   1.000  O
  Ir81     1.0000 0.83333  0.50000  0.19803  Biso   1.000  Ir
  O161     1.0000 0.83333  0.65000  0.19803  Biso   1.000  O
  Ir82     1.0000 0.66667  0.75000  0.19803  Biso   1.000  Ir
  O162     1.0000 0.83333  0.85000  0.19803  Biso   1.000  O
  O163     1.0000 0.66667  0.50000  0.22982  Biso   1.000  O
  O164     1.0000 0.66667  0.75000  0.24571  Biso   1.000  O
  Ir83     1.0000 0.66667  0.50000  0.27750  Biso   1.000  Ir
  O165     1.0000 0.83333  0.60000  0.27750  Biso   1.000  O
  Ir84     1.0000 0.83333  0.75000  0.27750  Biso   1.000  Ir
  O166     1.0000 0.83333  0.90000  0.27750  Biso   1.000  O
  O167     1.0000 0.66667  0.75000  0.30928  Biso   1.000  O
  O168     1.0000 0.66667  0.50000  0.32517  Biso   1.000  O
  Ir85     1.0000 0.83333  0.50000  0.35696  Biso   1.000  Ir
  O169     1.0000 0.83333  0.65000  0.35696  Biso   1.000  O
  Ir86     1.0000 0.66667  0.75000  0.35696  Biso   1.000  Ir
  O170     1.0000 0.83333  0.85000  0.35696  Biso   1.000  O
  O171     1.0000 0.66667  0.50000  0.38875  Biso   1.000  O
  O172     1.0000 0.66667  0.75000  0.40464  Biso   1.000  O
  Ir87     1.0000 0.66667  0.50000  0.43643  Biso   1.000  Ir
  O173     1.0000 0.83333  0.60000  0.43643  Biso   1.000  O
  Ir88     1.0000 0.83333  0.75000  0.43643  Biso   1.000  Ir
  O174     1.0000 0.83333  0.90000  0.43643  Biso   1.000  O
  O175     1.0000 0.66667  0.75000  0.46821  Biso   1.000  O
  O176     1.0000 0.66667  0.50000  0.48411  Biso   1.000  O
  Ir89     1.0000 0.83333  0.50000  0.51589  Biso   1.000  Ir
  O177     1.0000 0.83333  0.65000  0.51589  Biso   1.000  O
  Ir90     1.0000 0.66667  0.75000  0.51589  Biso   1.000  Ir
  O178     1.0000 0.83333  0.85000  0.51589  Biso   1.000  O
  O179     1.0000 0.66667  0.50000  0.54768  Biso   1.000  O
  O180     1.0000 0.66667  0.75000  0.56357  Biso   1.000  O
  Ir91     1.0000 0.66667  0.50000  0.59536  Biso   1.000  Ir
  O181     1.0000 0.83333  0.60000  0.59536  Biso   1.000  O
  Ir92     1.0000 0.83333  0.75000  0.59536  Biso   1.000  Ir
  O182     1.0000 0.83333  0.90000  0.59536  Biso   1.000  O
  O183     1.0000 0.66667  0.75000  0.62715  Biso   1.000  O
  O184     1.0000 0.66667  0.50000  0.64304  Biso   1.000  O
  Ir93     1.0000 0.83333  0.50000  0.67483  Biso   1.000  Ir
  O185     1.0000 0.83333  0.65000  0.67483  Biso   1.000  O
  Ir94     1.0000 0.66667  0.75000  0.67483  Biso   1.000  Ir
  O186     1.0000 0.83333  0.85000  0.67483  Biso   1.000  O
  O187     1.0000 0.66667  0.50000  0.70661  Biso   1.000  O
  O188     1.0000 0.66667  0.75000  0.72250  Biso   1.000  O
  Ir95     1.0000 0.66667  0.50000  0.75429  Biso   1.000  Ir
  O189     1.0000 0.83333  0.60000  0.75429  Biso   1.000  O
  Ir96     1.0000 0.83333  0.75000  0.75429  Biso   1.000  Ir
  O190     1.0000 0.83333  0.90000  0.75429  Biso   1.000  O
  O191     1.0000 0.66667  0.75000  0.78608  Biso   1.000  O
  O192     1.0000 0.66667  0.50000  0.80197  Biso   1.000  O
