data_image0
_cell_length_a       6.42053
_cell_length_b       3.1894
_cell_length_c       33.9775
_cell_angle_alpha    90
_cell_angle_beta     90
_cell_angle_gamma    90

_symmetry_space_group_name_H-M    "P 1"
_symmetry_int_tables_number       1

loop_
  _symmetry_equiv_pos_as_xyz
  'x, y, z'

loop_
  _atom_site_label
  _atom_site_occupancy
  _atom_site_fract_x
  _atom_site_fract_y
  _atom_site_fract_z
  _atom_site_thermal_displace_type
  _atom_site_B_iso_or_equiv
  _atom_site_type_symbol
  Ir1      1.0000 0.00000  0.00000  0.23545  Biso   1.000  Ir
  Ir2      1.0000 0.50000  0.50000  0.23545  Biso   1.000  Ir
  O1       1.0000 0.00000  0.00000  0.29214  Biso   1.000  O
  O2       1.0000 0.80000  0.50000  0.23545  Biso   1.000  O
  O3       1.0000 0.20000  0.50000  0.23545  Biso   1.000  O
  O4       1.0000 0.50000  0.00000  0.27324  Biso   1.000  O
  Ir3      1.0000 0.50000  0.00000  0.32993  Biso   1.000  Ir
  Ir4      1.0000 0.00000  0.50000  0.32993  Biso   1.000  Ir
  O5       1.0000 0.50000  0.00000  0.38662  Biso   1.000  O
  O6       1.0000 0.30000  0.50000  0.32993  Biso   1.000  O
  O7       1.0000 0.70000  0.50000  0.32993  Biso   1.000  O
  O8       1.0000 0.00000  0.00000  0.36773  Biso   1.000  O
  Ir5      1.0000 0.00000  0.00000  0.42441  Biso   1.000  Ir
  Ir6      1.0000 0.50000  0.50000  0.42441  Biso   1.000  Ir
  O9       1.0000 0.00000  0.00000  0.48110  Biso   1.000  O
  O10      1.0000 0.80000  0.50000  0.42441  Biso   1.000  O
  O11      1.0000 0.20000  0.50000  0.42441  Biso   1.000  O
  O12      1.0000 0.50000  0.00000  0.46221  Biso   1.000  O
  Ir7      1.0000 0.50000  0.00000  0.51890  Biso   1.000  Ir
  Ir8      1.0000 0.00000  0.50000  0.51890  Biso   1.000  Ir
  O13      1.0000 0.50000  0.00000  0.57559  Biso   1.000  O
  O14      1.0000 0.30000  0.50000  0.51890  Biso   1.000  O
  O15      1.0000 0.70000  0.50000  0.51890  Biso   1.000  O
  O16      1.0000 0.00000  0.00000  0.55669  Biso   1.000  O
  Ir9      1.0000 0.00000  0.00000  0.61338  Biso   1.000  Ir
  Ir10     1.0000 0.50000  0.50000  0.61338  Biso   1.000  Ir
  O17      1.0000 0.00000  0.00000  0.67007  Biso   1.000  O
  O18      1.0000 0.80000  0.50000  0.61338  Biso   1.000  O
  O19      1.0000 0.20000  0.50000  0.61338  Biso   1.000  O
  O20      1.0000 0.50000  0.00000  0.65117  Biso   1.000  O
  Ir11     1.0000 0.50000  0.00000  0.70786  Biso   1.000  Ir
  Ir12     1.0000 0.00000  0.50000  0.70786  Biso   1.000  Ir
  O21      1.0000 0.50000  0.00000  0.76455  Biso   1.000  O
  O22      1.0000 0.30000  0.50000  0.70786  Biso   1.000  O
  O23      1.0000 0.70000  0.50000  0.70786  Biso   1.000  O
  O24      1.0000 0.00000  0.00000  0.74565  Biso   1.000  O
