data_image0
_cell_length_a       5.9119
_cell_length_b       8.4461
_cell_length_c       35.672
_cell_angle_alpha    90
_cell_angle_beta     90
_cell_angle_gamma    90

_symmetry_space_group_name_H-M    "P 1"
_symmetry_int_tables_number       1

loop_
  _symmetry_equiv_pos_as_xyz
  'x, y, z'

loop_
  _atom_site_label
  _atom_site_occupancy
  _atom_site_fract_x
  _atom_site_fract_y
  _atom_site_fract_z
  _atom_site_thermal_displace_type
  _atom_site_B_iso_or_equiv
  _atom_site_type_symbol
  Ir1      1.0000 0.75000  0.75000  0.45823  Biso   1.000  Ir
  Ir2      1.0000 0.25000  0.25000  0.45823  Biso   1.000  Ir
  Ir3      1.0000 0.75000  0.25000  0.20824  Biso   1.000  Ir
  Ir4      1.0000 0.25000  0.75000  0.29176  Biso   1.000  Ir
  Ir5      1.0000 0.25000  0.75000  0.20824  Biso   1.000  Ir
  Ir6      1.0000 0.75000  0.25000  0.29176  Biso   1.000  Ir
  Ir7      1.0000 0.50000  0.50000  0.41670  Biso   1.000  Ir
  Ir8      1.0000 0.50000  0.50000  0.16670  Biso   1.000  Ir
  Ir9      1.0000 0.50000  0.50000  0.33330  Biso   1.000  Ir
  Ir10     1.0000 0.00000  0.00000  0.41670  Biso   1.000  Ir
  Ir11     1.0000 0.00000  0.00000  0.16670  Biso   1.000  Ir
  Ir12     1.0000 0.00000  0.00000  0.33330  Biso   1.000  Ir
  O1       1.0000 0.28400  0.48200  0.45750  Biso   1.000  O
  O2       1.0000 0.71600  0.51800  0.45750  Biso   1.000  O
  O3       1.0000 0.28400  0.51800  0.20750  Biso   1.000  O
  O4       1.0000 0.71600  0.48200  0.29250  Biso   1.000  O
  O5       1.0000 0.71600  0.48200  0.20750  Biso   1.000  O
  O6       1.0000 0.28400  0.51800  0.29250  Biso   1.000  O
  O7       1.0000 0.78400  0.98200  0.45750  Biso   1.000  O
  O8       1.0000 0.21600  0.01800  0.45750  Biso   1.000  O
  O9       1.0000 0.78400  0.01800  0.20750  Biso   1.000  O
  O10      1.0000 0.21600  0.98200  0.29250  Biso   1.000  O
  O11      1.0000 0.21600  0.98200  0.20750  Biso   1.000  O
  O12      1.0000 0.78400  0.01800  0.29250  Biso   1.000  O
  O13      1.0000 0.71900  0.50000  0.12500  Biso   1.000  O
  O14      1.0000 0.28100  0.50000  0.37500  Biso   1.000  O
  O15      1.0000 0.28100  0.50000  0.12500  Biso   1.000  O
  O16      1.0000 0.71900  0.50000  0.37500  Biso   1.000  O
  O17      1.0000 0.21900  0.00000  0.12500  Biso   1.000  O
  O18      1.0000 0.78100  0.00000  0.37500  Biso   1.000  O
  O19      1.0000 0.78100  0.00000  0.12500  Biso   1.000  O
  O20      1.0000 0.21900  0.00000  0.37500  Biso   1.000  O
  O21      1.0000 0.98200  0.27100  0.25000  Biso   1.000  O
  O22      1.0000 0.01800  0.72900  0.25000  Biso   1.000  O
  O23      1.0000 0.48200  0.77100  0.25000  Biso   1.000  O
  O24      1.0000 0.51800  0.22900  0.25000  Biso   1.000  O
  O25      1.0000 0.53000  0.74200  0.41900  Biso   1.000  O
  O26      1.0000 0.47000  0.25800  0.41900  Biso   1.000  O
  O27      1.0000 0.53000  0.25800  0.16900  Biso   1.000  O
  O28      1.0000 0.47000  0.74200  0.33100  Biso   1.000  O
  O29      1.0000 0.47000  0.74200  0.16900  Biso   1.000  O
  O30      1.0000 0.53000  0.25800  0.33100  Biso   1.000  O
  O31      1.0000 0.03000  0.24200  0.41900  Biso   1.000  O
  O32      1.0000 0.97000  0.75800  0.41900  Biso   1.000  O
  O33      1.0000 0.03000  0.75800  0.16900  Biso   1.000  O
  O34      1.0000 0.97000  0.24200  0.33100  Biso   1.000  O
  O35      1.0000 0.97000  0.24200  0.16900  Biso   1.000  O
  O36      1.0000 0.03000  0.75800  0.33100  Biso   1.000  O
  Ir13     1.0000 0.25000  0.25000  0.54176  Biso   1.000  Ir
  Ir14     1.0000 0.75000  0.75000  0.54176  Biso   1.000  Ir
  Ir15     1.0000 0.75000  0.25000  0.70824  Biso   1.000  Ir
  Ir16     1.0000 0.25000  0.75000  0.70824  Biso   1.000  Ir
  Ir17     1.0000 0.50000  0.50000  0.58330  Biso   1.000  Ir
  Ir18     1.0000 0.50000  0.50000  0.66670  Biso   1.000  Ir
  Ir19     1.0000 0.00000  0.00000  0.58330  Biso   1.000  Ir
  Ir20     1.0000 0.00000  0.00000  0.66670  Biso   1.000  Ir
  O37      1.0000 0.71600  0.51800  0.54250  Biso   1.000  O
  O38      1.0000 0.28400  0.48200  0.54250  Biso   1.000  O
  O39      1.0000 0.28400  0.51800  0.70750  Biso   1.000  O
  O40      1.0000 0.71600  0.48200  0.70750  Biso   1.000  O
  O41      1.0000 0.21600  0.01800  0.54250  Biso   1.000  O
  O42      1.0000 0.78400  0.98200  0.54250  Biso   1.000  O
  O43      1.0000 0.78400  0.01800  0.70750  Biso   1.000  O
  O44      1.0000 0.21600  0.98200  0.70750  Biso   1.000  O
  O45      1.0000 0.71900  0.50000  0.62500  Biso   1.000  O
  O46      1.0000 0.28100  0.50000  0.62500  Biso   1.000  O
  O47      1.0000 0.21900  0.00000  0.62500  Biso   1.000  O
  O48      1.0000 0.78100  0.00000  0.62500  Biso   1.000  O
  O49      1.0000 0.01800  0.27100  0.50000  Biso   1.000  O
  O50      1.0000 0.98200  0.72900  0.50000  Biso   1.000  O
  O51      1.0000 0.98200  0.27100  0.75000  Biso   1.000  O
  O52      1.0000 0.01800  0.72900  0.75000  Biso   1.000  O
  O53      1.0000 0.51800  0.77100  0.50000  Biso   1.000  O
  O54      1.0000 0.48200  0.22900  0.50000  Biso   1.000  O
  O55      1.0000 0.48200  0.77100  0.75000  Biso   1.000  O
  O56      1.0000 0.51800  0.22900  0.75000  Biso   1.000  O
  O57      1.0000 0.47000  0.25800  0.58100  Biso   1.000  O
  O58      1.0000 0.53000  0.74200  0.58100  Biso   1.000  O
  O59      1.0000 0.53000  0.25800  0.66900  Biso   1.000  O
  O60      1.0000 0.47000  0.74200  0.66900  Biso   1.000  O
  O61      1.0000 0.97000  0.75800  0.58100  Biso   1.000  O
  O62      1.0000 0.03000  0.24200  0.58100  Biso   1.000  O
  O63      1.0000 0.03000  0.75800  0.66900  Biso   1.000  O
  O64      1.0000 0.97000  0.24200  0.66900  Biso   1.000  O
