data_image0
_cell_length_a       5.9119
_cell_length_b       8.4461
_cell_length_c       20
_cell_angle_alpha    90
_cell_angle_beta     90
_cell_angle_gamma    90

_symmetry_space_group_name_H-M    "P 1"
_symmetry_int_tables_number       1

loop_
  _symmetry_equiv_pos_as_xyz
  'x, y, z'

loop_
  _atom_site_label
  _atom_site_occupancy
  _atom_site_fract_x
  _atom_site_fract_y
  _atom_site_fract_z
  _atom_site_thermal_displace_type
  _atom_site_B_iso_or_equiv
  _atom_site_type_symbol
  Ir1      1.0000 0.75900  0.25900  0.38628  Biso   1.000  Ir
  Ir2      1.0000 0.25900  0.75900  0.53524  Biso   1.000  Ir
  Ir3      1.0000 0.25900  0.75900  0.38628  Biso   1.000  Ir
  Ir4      1.0000 0.75900  0.25900  0.53524  Biso   1.000  Ir
  Ir5      1.0000 0.50900  0.50900  0.75809  Biso   1.000  Ir
  Ir6      1.0000 0.50900  0.50900  0.31219  Biso   1.000  Ir
  Ir7      1.0000 0.50900  0.50900  0.60933  Biso   1.000  Ir
  Ir8      1.0000 0.00900  0.00900  0.75809  Biso   1.000  Ir
  Ir9      1.0000 0.00900  0.00900  0.31219  Biso   1.000  Ir
  Ir10     1.0000 0.00900  0.00900  0.60933  Biso   1.000  Ir
  O1       1.0000 0.29300  0.52700  0.38496  Biso   1.000  O
  O2       1.0000 0.72500  0.49100  0.53656  Biso   1.000  O
  O3       1.0000 0.72500  0.49100  0.38496  Biso   1.000  O
  O4       1.0000 0.29300  0.52700  0.53656  Biso   1.000  O
  O5       1.0000 0.79300  0.02700  0.38496  Biso   1.000  O
  O6       1.0000 0.22500  0.99100  0.53656  Biso   1.000  O
  O7       1.0000 0.22500  0.99100  0.38496  Biso   1.000  O
  O8       1.0000 0.79300  0.02700  0.53656  Biso   1.000  O
  O9       1.0000 0.72800  0.50900  0.23781  Biso   1.000  O
  O10      1.0000 0.29000  0.50900  0.68371  Biso   1.000  O
  O11      1.0000 0.29000  0.50900  0.23781  Biso   1.000  O
  O12      1.0000 0.72800  0.50900  0.68371  Biso   1.000  O
  O13      1.0000 0.22800  0.00900  0.23781  Biso   1.000  O
  O14      1.0000 0.79000  0.00900  0.68371  Biso   1.000  O
  O15      1.0000 0.79000  0.00900  0.23781  Biso   1.000  O
  O16      1.0000 0.22800  0.00900  0.68371  Biso   1.000  O
  O17      1.0000 0.99100  0.28000  0.46076  Biso   1.000  O
  O18      1.0000 0.02700  0.73800  0.46076  Biso   1.000  O
  O19      1.0000 0.49100  0.78000  0.46076  Biso   1.000  O
  O20      1.0000 0.52700  0.23800  0.46076  Biso   1.000  O
  O21      1.0000 0.53900  0.75100  0.76219  Biso   1.000  O
  O22      1.0000 0.47900  0.26700  0.76219  Biso   1.000  O
  O23      1.0000 0.53900  0.26700  0.31629  Biso   1.000  O
  O24      1.0000 0.47900  0.75100  0.60523  Biso   1.000  O
  O25      1.0000 0.47900  0.75100  0.31629  Biso   1.000  O
  O26      1.0000 0.53900  0.26700  0.60523  Biso   1.000  O
  O27      1.0000 0.03900  0.25100  0.76219  Biso   1.000  O
  O28      1.0000 0.97900  0.76700  0.76219  Biso   1.000  O
  O29      1.0000 0.03900  0.76700  0.31629  Biso   1.000  O
  O30      1.0000 0.97900  0.25100  0.60523  Biso   1.000  O
  O31      1.0000 0.97900  0.25100  0.31629  Biso   1.000  O
  O32      1.0000 0.03900  0.76700  0.60523  Biso   1.000  O
