data_image0
_cell_length_a       8.61194
_cell_length_b       5.1456
_cell_length_c       27.6767
_cell_angle_alpha    90
_cell_angle_beta     90
_cell_angle_gamma    93.4064

_symmetry_space_group_name_H-M    "P 1"
_symmetry_int_tables_number       1

loop_
  _symmetry_equiv_pos_as_xyz
  'x, y, z'

loop_
  _atom_site_label
  _atom_site_occupancy
  _atom_site_fract_x
  _atom_site_fract_y
  _atom_site_fract_z
  _atom_site_thermal_displace_type
  _atom_site_B_iso_or_equiv
  _atom_site_type_symbol
  O1       1.0000 0.61912  0.78483  0.27099  Biso   1.000  O
  O2       1.0000 0.11912  0.28484  0.27099  Biso   1.000  O
  O3       1.0000 0.56935  0.27989  0.29339  Biso   1.000  O
  O4       1.0000 0.06935  0.77990  0.29339  Biso   1.000  O
  O5       1.0000 0.85329  0.11945  0.32119  Biso   1.000  O
  O6       1.0000 0.35329  0.61946  0.32119  Biso   1.000  O
  O7       1.0000 0.30350  0.11449  0.34360  Biso   1.000  O
  O8       1.0000 0.80350  0.61450  0.34360  Biso   1.000  O
  O9       1.0000 0.58087  0.93669  0.36600  Biso   1.000  O
  O10      1.0000 0.08088  0.43670  0.36600  Biso   1.000  O
  O11      1.0000 0.51913  0.43056  0.39379  Biso   1.000  O
  O12      1.0000 0.01914  0.93057  0.39379  Biso   1.000  O
  O13      1.0000 0.29648  0.75275  0.41619  Biso   1.000  O
  O14      1.0000 0.79648  0.25276  0.41619  Biso   1.000  O
  O15      1.0000 0.74670  0.74781  0.43860  Biso   1.000  O
  O16      1.0000 0.24670  0.24780  0.43860  Biso   1.000  O
  O17      1.0000 0.53065  0.08737  0.46640  Biso   1.000  O
  O18      1.0000 0.03065  0.58738  0.46640  Biso   1.000  O
  O19      1.0000 0.48087  0.58241  0.48880  Biso   1.000  O
  O20      1.0000 0.98087  0.08240  0.48880  Biso   1.000  O
  O21      1.0000 0.25855  0.90392  0.51129  Biso   1.000  O
  O22      1.0000 0.75735  0.40453  0.51149  Biso   1.000  O
  O23      1.0000 0.69503  0.90095  0.54069  Biso   1.000  O
  O24      1.0000 0.19579  0.40187  0.54029  Biso   1.000  O
  O25      1.0000 0.47170  0.22537  0.56070  Biso   1.000  O
  O26      1.0000 0.97308  0.71939  0.56088  Biso   1.000  O
  O27      1.0000 0.42053  0.72107  0.58371  Biso   1.000  O
  O28      1.0000 0.92153  0.21909  0.58410  Biso   1.000  O
  O29      1.0000 0.20522  0.06028  0.61154  Biso   1.000  O
  O30      1.0000 0.70007  0.56833  0.61500  Biso   1.000  O
  O31      1.0000 0.65797  0.04503  0.63716  Biso   1.000  O
  O32      1.0000 0.16063  0.55146  0.63559  Biso   1.000  O
  O33      1.0000 0.44308  0.36989  0.65365  Biso   1.000  O
  O34      1.0000 0.94874  0.87054  0.65436  Biso   1.000  O
  O35      1.0000 0.36856  0.84328  0.68123  Biso   1.000  O
  O36      1.0000 0.86981  0.36232  0.68095  Biso   1.000  O
  O37      1.0000 0.60570  0.40746  0.73124  Biso   1.000  O
  O38      1.0000 0.15023  0.17969  0.70785  Biso   1.000  O
  O39      1.0000 0.09601  0.69424  0.73189  Biso   1.000  O
  Ir1      1.0000 0.46131  0.94967  0.30728  Biso   1.000  Ir
  Ir2      1.0000 0.96133  0.44968  0.30728  Biso   1.000  Ir
  Ir3      1.0000 0.80001  0.93362  0.37989  Biso   1.000  Ir
  Ir4      1.0000 0.30001  0.43363  0.37989  Biso   1.000  Ir
  Ir5      1.0000 0.13868  0.91758  0.45249  Biso   1.000  Ir
  Ir6      1.0000 0.63868  0.41759  0.45249  Biso   1.000  Ir
  Ir7      1.0000 0.47734  0.90401  0.52536  Biso   1.000  Ir
  Ir8      1.0000 0.97674  0.40081  0.52498  Biso   1.000  Ir
  Ir9      1.0000 0.82094  0.88726  0.59860  Biso   1.000  Ir
  Ir10     1.0000 0.31406  0.38916  0.59897  Biso   1.000  Ir
  Ir11     1.0000 0.16915  0.88566  0.67476  Biso   1.000  Ir
  Ir12     1.0000 0.66596  0.36465  0.67194  Biso   1.000  Ir
  H1       1.0000 0.09731  0.81807  0.75885  Biso   1.000  H
