data_image0
_cell_length_a       8.61194
_cell_length_b       5.1456
_cell_length_c       27.6767
_cell_angle_alpha    90
_cell_angle_beta     90
_cell_angle_gamma    93.4064

_symmetry_space_group_name_H-M    "P 1"
_symmetry_int_tables_number       1

loop_
  _symmetry_equiv_pos_as_xyz
  'x, y, z'

loop_
  _atom_site_label
  _atom_site_occupancy
  _atom_site_fract_x
  _atom_site_fract_y
  _atom_site_fract_z
  _atom_site_thermal_displace_type
  _atom_site_B_iso_or_equiv
  _atom_site_type_symbol
  O1       1.0000 0.61912  0.78483  0.27099  Biso   1.000  O
  O2       1.0000 0.11912  0.28484  0.27099  Biso   1.000  O
  O3       1.0000 0.56935  0.27989  0.29339  Biso   1.000  O
  O4       1.0000 0.06935  0.77990  0.29339  Biso   1.000  O
  O5       1.0000 0.85329  0.11945  0.32119  Biso   1.000  O
  O6       1.0000 0.35329  0.61946  0.32119  Biso   1.000  O
  O7       1.0000 0.30350  0.11449  0.34360  Biso   1.000  O
  O8       1.0000 0.80350  0.61450  0.34360  Biso   1.000  O
  O9       1.0000 0.58087  0.93669  0.36600  Biso   1.000  O
  O10      1.0000 0.08088  0.43670  0.36600  Biso   1.000  O
  O11      1.0000 0.51913  0.43056  0.39379  Biso   1.000  O
  O12      1.0000 0.01914  0.93057  0.39379  Biso   1.000  O
  O13      1.0000 0.29648  0.75275  0.41619  Biso   1.000  O
  O14      1.0000 0.79648  0.25276  0.41619  Biso   1.000  O
  O15      1.0000 0.74670  0.74781  0.43860  Biso   1.000  O
  O16      1.0000 0.24670  0.24780  0.43860  Biso   1.000  O
  O17      1.0000 0.53065  0.08737  0.46640  Biso   1.000  O
  O18      1.0000 0.03065  0.58738  0.46640  Biso   1.000  O
  O19      1.0000 0.48087  0.58241  0.48880  Biso   1.000  O
  O20      1.0000 0.98087  0.08240  0.48880  Biso   1.000  O
  O21      1.0000 0.25847  0.90318  0.51124  Biso   1.000  O
  O22      1.0000 0.75877  0.40317  0.51108  Biso   1.000  O
  O23      1.0000 0.69607  0.89795  0.53973  Biso   1.000  O
  O24      1.0000 0.19711  0.40221  0.53903  Biso   1.000  O
  O25      1.0000 0.47166  0.21761  0.56178  Biso   1.000  O
  O26      1.0000 0.97093  0.72378  0.56064  Biso   1.000  O
  O27      1.0000 0.42185  0.70934  0.58343  Biso   1.000  O
  O28      1.0000 0.92603  0.22127  0.58412  Biso   1.000  O
  O29      1.0000 0.20723  0.05879  0.61141  Biso   1.000  O
  O30      1.0000 0.71209  0.55362  0.61213  Biso   1.000  O
  O31      1.0000 0.65902  0.05512  0.63227  Biso   1.000  O
  O32      1.0000 0.15772  0.55680  0.63368  Biso   1.000  O
  O33      1.0000 0.43976  0.36786  0.65548  Biso   1.000  O
  O34      1.0000 0.94402  0.87103  0.65410  Biso   1.000  O
  O35      1.0000 0.35809  0.83627  0.68334  Biso   1.000  O
  O36      1.0000 0.85228  0.31062  0.68818  Biso   1.000  O
  O37      1.0000 0.64997  0.69629  0.70311  Biso   1.000  O
  O38      1.0000 0.15129  0.17938  0.70362  Biso   1.000  O
  O39      1.0000 0.58075  0.18525  0.72861  Biso   1.000  O
  O40      1.0000 0.08686  0.67171  0.72849  Biso   1.000  O
  O41      1.0000 0.68142  0.21110  0.76899  Biso   1.000  O
  Ir1      1.0000 0.46131  0.94967  0.30728  Biso   1.000  Ir
  Ir2      1.0000 0.96133  0.44968  0.30728  Biso   1.000  Ir
  Ir3      1.0000 0.80001  0.93362  0.37989  Biso   1.000  Ir
  Ir4      1.0000 0.30001  0.43363  0.37989  Biso   1.000  Ir
  Ir5      1.0000 0.13868  0.91758  0.45249  Biso   1.000  Ir
  Ir6      1.0000 0.63868  0.41759  0.45249  Biso   1.000  Ir
  Ir7      1.0000 0.47742  0.90112  0.52564  Biso   1.000  Ir
  Ir8      1.0000 0.97838  0.40375  0.52524  Biso   1.000  Ir
  Ir9      1.0000 0.81600  0.89202  0.59828  Biso   1.000  Ir
  Ir10     1.0000 0.31227  0.38010  0.59859  Biso   1.000  Ir
  Ir11     1.0000 0.15587  0.86261  0.67928  Biso   1.000  Ir
  Ir12     1.0000 0.66078  0.39245  0.67380  Biso   1.000  Ir
  H1       1.0000 0.65105  0.04796  0.78600  Biso   1.000  H
