data_image0
_cell_length_a       7.0938
_cell_length_b       9.766
_cell_length_c       24.3345
_cell_angle_alpha    90
_cell_angle_beta     90
_cell_angle_gamma    90

_symmetry_space_group_name_H-M    "P 1"
_symmetry_int_tables_number       1

loop_
  _symmetry_equiv_pos_as_xyz
  'x, y, z'

loop_
  _atom_site_label
  _atom_site_occupancy
  _atom_site_fract_x
  _atom_site_fract_y
  _atom_site_fract_z
  _atom_site_thermal_displace_type
  _atom_site_B_iso_or_equiv
  _atom_site_type_symbol
  Ir1      1.0000 0.82849  0.00000  0.30820  Biso   1.000  Ir
  Ir2      1.0000 0.30232  0.25000  0.41366  Biso   1.000  Ir
  Ir3      1.0000 0.77726  0.99599  0.51898  Biso   1.000  Ir
  Ir4      1.0000 0.24609  0.25175  0.63085  Biso   1.000  Ir
  Ir5      1.0000 0.32849  0.00000  0.30820  Biso   1.000  Ir
  Ir6      1.0000 0.80232  0.25000  0.41366  Biso   1.000  Ir
  Ir7      1.0000 0.27424  0.99913  0.51979  Biso   1.000  Ir
  Ir8      1.0000 0.74201  0.25500  0.62345  Biso   1.000  Ir
  Ir9      1.0000 0.82849  0.50000  0.30820  Biso   1.000  Ir
  Ir10     1.0000 0.30232  0.75000  0.41366  Biso   1.000  Ir
  Ir11     1.0000 0.77493  0.50292  0.51915  Biso   1.000  Ir
  Ir12     1.0000 0.24715  0.74823  0.63285  Biso   1.000  Ir
  Ir13     1.0000 0.32849  0.50000  0.30820  Biso   1.000  Ir
  Ir14     1.0000 0.80232  0.75000  0.41366  Biso   1.000  Ir
  Ir15     1.0000 0.27643  0.50069  0.51921  Biso   1.000  Ir
  Ir16     1.0000 0.74700  0.75374  0.63377  Biso   1.000  Ir
  O1       1.0000 0.74229  0.16358  0.34466  Biso   1.000  O
  O2       1.0000 0.21613  0.41358  0.45010  Biso   1.000  O
  O3       1.0000 0.68487  0.15573  0.56067  Biso   1.000  O
  O4       1.0000 0.15145  0.40285  0.66073  Biso   1.000  O
  O5       1.0000 0.24230  0.33643  0.34466  Biso   1.000  O
  O6       1.0000 0.71613  0.08643  0.45011  Biso   1.000  O
  O7       1.0000 0.19966  0.34012  0.55693  Biso   1.000  O
  O8       1.0000 0.71230  0.20830  0.69179  Biso   1.000  O
  O9       1.0000 0.88852  0.41358  0.37720  Biso   1.000  O
  O10      1.0000 0.36236  0.16358  0.48265  Biso   1.000  O
  O11      1.0000 0.84493  0.41043  0.58988  Biso   1.000  O
  O12      1.0000 0.33508  0.16876  0.68969  Biso   1.000  O
  O13      1.0000 0.38851  0.08643  0.37719  Biso   1.000  O
  O14      1.0000 0.86235  0.33643  0.48265  Biso   1.000  O
  O15      1.0000 0.32081  0.09484  0.58668  Biso   1.000  O
  O16      1.0000 0.57849  0.42284  0.30820  Biso   1.000  O
  O17      1.0000 0.05232  0.17284  0.41366  Biso   1.000  O
  O18      1.0000 0.52806  0.42307  0.51883  Biso   1.000  O
  O19      1.0000 0.99760  0.17452  0.62383  Biso   1.000  O
  O20      1.0000 0.07849  0.07715  0.30820  Biso   1.000  O
  O21      1.0000 0.55232  0.32715  0.41366  Biso   1.000  O
  O22      1.0000 0.02288  0.07797  0.51861  Biso   1.000  O
  O23      1.0000 0.49868  0.34103  0.62113  Biso   1.000  O
  O24      1.0000 0.74229  0.66358  0.34466  Biso   1.000  O
  O25      1.0000 0.21613  0.91358  0.45010  Biso   1.000  O
  O26      1.0000 0.69712  0.65766  0.55912  Biso   1.000  O
  O27      1.0000 0.15022  0.89689  0.66373  Biso   1.000  O
  O28      1.0000 0.24230  0.83643  0.34466  Biso   1.000  O
  O29      1.0000 0.71613  0.58643  0.45011  Biso   1.000  O
  O30      1.0000 0.19625  0.84059  0.55806  Biso   1.000  O
  O31      1.0000 0.64906  0.60472  0.66395  Biso   1.000  O
  O32      1.0000 0.88852  0.91358  0.37720  Biso   1.000  O
  O33      1.0000 0.36236  0.66358  0.48265  Biso   1.000  O
  O34      1.0000 0.82531  0.90186  0.58642  Biso   1.000  O
  O35      1.0000 0.32850  0.65828  0.69130  Biso   1.000  O
  O36      1.0000 0.38851  0.58643  0.37719  Biso   1.000  O
  O37      1.0000 0.86235  0.83643  0.48265  Biso   1.000  O
  O38      1.0000 0.32471  0.59763  0.58604  Biso   1.000  O
  O39      1.0000 0.82684  0.84105  0.69287  Biso   1.000  O
  O40      1.0000 0.57849  0.92284  0.30820  Biso   1.000  O
  O41      1.0000 0.05232  0.67284  0.41366  Biso   1.000  O
  O42      1.0000 0.52422  0.92473  0.51857  Biso   1.000  O
  O43      1.0000 0.99968  0.66968  0.62539  Biso   1.000  O
  O44      1.0000 0.07849  0.57715  0.30820  Biso   1.000  O
  O45      1.0000 0.55232  0.82715  0.41366  Biso   1.000  O
  O46      1.0000 0.02555  0.57540  0.51778  Biso   1.000  O
  O47      1.0000 0.49995  0.83333  0.62549  Biso   1.000  O
