data_image0
_cell_length_a       7.0938
_cell_length_b       9.766
_cell_length_c       24.3345
_cell_angle_alpha    90
_cell_angle_beta     90
_cell_angle_gamma    90

_symmetry_space_group_name_H-M    "P 1"
_symmetry_int_tables_number       1

loop_
  _symmetry_equiv_pos_as_xyz
  'x, y, z'

loop_
  _atom_site_label
  _atom_site_occupancy
  _atom_site_fract_x
  _atom_site_fract_y
  _atom_site_fract_z
  _atom_site_thermal_displace_type
  _atom_site_B_iso_or_equiv
  _atom_site_type_symbol
  Ir1      1.0000 0.82849  0.00000  0.30820  Biso   1.000  Ir
  Ir2      1.0000 0.30232  0.25000  0.41366  Biso   1.000  Ir
  Ir3      1.0000 0.77619  0.99991  0.51924  Biso   1.000  Ir
  Ir4      1.0000 0.25703  0.24969  0.63279  Biso   1.000  Ir
  Ir5      1.0000 0.32849  0.00000  0.30820  Biso   1.000  Ir
  Ir6      1.0000 0.80232  0.25000  0.41366  Biso   1.000  Ir
  Ir7      1.0000 0.27611  0.99979  0.51948  Biso   1.000  Ir
  Ir8      1.0000 0.75047  0.24698  0.62926  Biso   1.000  Ir
  Ir9      1.0000 0.82849  0.50000  0.30820  Biso   1.000  Ir
  Ir10     1.0000 0.30232  0.75000  0.41366  Biso   1.000  Ir
  Ir11     1.0000 0.77592  0.50149  0.51943  Biso   1.000  Ir
  Ir12     1.0000 0.24748  0.74888  0.63239  Biso   1.000  Ir
  Ir13     1.0000 0.32849  0.50000  0.30820  Biso   1.000  Ir
  Ir14     1.0000 0.80232  0.75000  0.41366  Biso   1.000  Ir
  Ir15     1.0000 0.27569  0.49966  0.51947  Biso   1.000  Ir
  Ir16     1.0000 0.74742  0.75386  0.63310  Biso   1.000  Ir
  O1       1.0000 0.74229  0.16358  0.34466  Biso   1.000  O
  O2       1.0000 0.21613  0.41358  0.45010  Biso   1.000  O
  O3       1.0000 0.69268  0.16112  0.55612  Biso   1.000  O
  O4       1.0000 0.16262  0.40203  0.66272  Biso   1.000  O
  O5       1.0000 0.24230  0.33643  0.34466  Biso   1.000  O
  O6       1.0000 0.71613  0.08643  0.45011  Biso   1.000  O
  O7       1.0000 0.19814  0.34097  0.55763  Biso   1.000  O
  O8       1.0000 0.65292  0.10362  0.66230  Biso   1.000  O
  O9       1.0000 0.88852  0.41358  0.37720  Biso   1.000  O
  O10      1.0000 0.36236  0.16358  0.48265  Biso   1.000  O
  O11      1.0000 0.82483  0.39987  0.58566  Biso   1.000  O
  O12      1.0000 0.32689  0.15701  0.69193  Biso   1.000  O
  O13      1.0000 0.38851  0.08643  0.37719  Biso   1.000  O
  O14      1.0000 0.86235  0.33643  0.48265  Biso   1.000  O
  O15      1.0000 0.32579  0.09755  0.58645  Biso   1.000  O
  O16      1.0000 0.57849  0.42284  0.30820  Biso   1.000  O
  O17      1.0000 0.05232  0.17284  0.41366  Biso   1.000  O
  O18      1.0000 0.52538  0.42392  0.51859  Biso   1.000  O
  O19      1.0000 0.00316  0.17462  0.62766  Biso   1.000  O
  O20      1.0000 0.07849  0.07715  0.30820  Biso   1.000  O
  O21      1.0000 0.55232  0.32715  0.41366  Biso   1.000  O
  O22      1.0000 0.02537  0.07643  0.51877  Biso   1.000  O
  O23      1.0000 0.50063  0.33349  0.62606  Biso   1.000  O
  O24      1.0000 0.74229  0.66358  0.34466  Biso   1.000  O
  O25      1.0000 0.21613  0.91358  0.45010  Biso   1.000  O
  O26      1.0000 0.69950  0.65922  0.55771  Biso   1.000  O
  O27      1.0000 0.14899  0.89659  0.66359  Biso   1.000  O
  O28      1.0000 0.24230  0.83643  0.34466  Biso   1.000  O
  O29      1.0000 0.71613  0.58643  0.45011  Biso   1.000  O
  O30      1.0000 0.19879  0.84132  0.55809  Biso   1.000  O
  O31      1.0000 0.64705  0.60460  0.66213  Biso   1.000  O
  O32      1.0000 0.88852  0.91358  0.37720  Biso   1.000  O
  O33      1.0000 0.36236  0.66358  0.48265  Biso   1.000  O
  O34      1.0000 0.82459  0.90473  0.58670  Biso   1.000  O
  O35      1.0000 0.32814  0.65880  0.69091  Biso   1.000  O
  O36      1.0000 0.38851  0.58643  0.37719  Biso   1.000  O
  O37      1.0000 0.86235  0.83643  0.48265  Biso   1.000  O
  O38      1.0000 0.32472  0.59724  0.58598  Biso   1.000  O
  O39      1.0000 0.82609  0.84077  0.69245  Biso   1.000  O
  O40      1.0000 0.57849  0.92284  0.30820  Biso   1.000  O
  O41      1.0000 0.05232  0.67284  0.41366  Biso   1.000  O
  O42      1.0000 0.52582  0.92392  0.51826  Biso   1.000  O
  O43      1.0000 0.99947  0.66960  0.62500  Biso   1.000  O
  O44      1.0000 0.07849  0.57715  0.30820  Biso   1.000  O
  O45      1.0000 0.55232  0.82715  0.41366  Biso   1.000  O
  O46      1.0000 0.02620  0.57584  0.51792  Biso   1.000  O
  O47      1.0000 0.49988  0.83236  0.62452  Biso   1.000  O
  O48      1.0000 0.80240  0.35268  0.69457  Biso   1.000  O
  H1       1.0000 0.94087  0.36542  0.69782  Biso   1.000  H
