data_image0
_cell_length_a       5.9119
_cell_length_b       17.836
_cell_length_c       33.7844
_cell_angle_alpha    90
_cell_angle_beta     90
_cell_angle_gamma    90

_symmetry_space_group_name_H-M    "P 1"
_symmetry_int_tables_number       1

loop_
  _symmetry_equiv_pos_as_xyz
  'x, y, z'

loop_
  _atom_site_label
  _atom_site_occupancy
  _atom_site_fract_x
  _atom_site_fract_y
  _atom_site_fract_z
  _atom_site_thermal_displace_type
  _atom_site_B_iso_or_equiv
  _atom_site_type_symbol
  Ir1      1.0000 0.75000  0.91647  0.43750  Biso   1.000  Ir
  Ir2      1.0000 0.75000  0.08353  0.43750  Biso   1.000  Ir
  Ir3      1.0000 0.25000  0.58353  0.43750  Biso   1.000  Ir
  Ir4      1.0000 0.25000  0.41647  0.43750  Biso   1.000  Ir
  Ir5      1.0000 0.50000  0.16659  0.37500  Biso   1.000  Ir
  Ir6      1.0000 0.50000  0.83341  0.37500  Biso   1.000  Ir
  Ir7      1.0000 0.50000  0.33341  0.37500  Biso   1.000  Ir
  Ir8      1.0000 0.50000  0.66659  0.37500  Biso   1.000  Ir
  Ir9      1.0000 0.28267  0.08241  0.57034  Biso   1.000  Ir
  Ir10     1.0000 0.29558  0.90763  0.56770  Biso   1.000  Ir
  Ir11     1.0000 0.71713  0.41844  0.57041  Biso   1.000  Ir
  Ir12     1.0000 0.70629  0.59319  0.56794  Biso   1.000  Ir
  Ir13     1.0000 0.03104  0.16510  0.50027  Biso   1.000  Ir
  Ir14     1.0000 0.02423  0.83510  0.49935  Biso   1.000  Ir
  Ir15     1.0000 0.96785  0.33556  0.50033  Biso   1.000  Ir
  Ir16     1.0000 0.97726  0.66523  0.49944  Biso   1.000  Ir
  O1       1.0000 0.71600  0.08500  0.37950  Biso   1.000  O
  O2       1.0000 0.28400  0.91500  0.37050  Biso   1.000  O
  O3       1.0000 0.28400  0.08500  0.37050  Biso   1.000  O
  O4       1.0000 0.71600  0.91500  0.37950  Biso   1.000  O
  O5       1.0000 0.28400  0.41500  0.37950  Biso   1.000  O
  O6       1.0000 0.71600  0.58500  0.37050  Biso   1.000  O
  O7       1.0000 0.71600  0.41500  0.37050  Biso   1.000  O
  O8       1.0000 0.28400  0.58500  0.37950  Biso   1.000  O
  O9       1.0000 0.79743  0.90833  0.49417  Biso   1.000  O
  O10      1.0000 0.80288  0.09235  0.49362  Biso   1.000  O
  O11      1.0000 0.20333  0.59184  0.49421  Biso   1.000  O
  O12      1.0000 0.19708  0.40784  0.49366  Biso   1.000  O
  O13      1.0000 0.71900  0.25000  0.37500  Biso   1.000  O
  O14      1.0000 0.28100  0.75000  0.37500  Biso   1.000  O
  O15      1.0000 0.28100  0.25000  0.37500  Biso   1.000  O
  O16      1.0000 0.71900  0.75000  0.37500  Biso   1.000  O
  O17      1.0000 0.98200  0.00000  0.43225  Biso   1.000  O
  O18      1.0000 0.01800  0.50000  0.43225  Biso   1.000  O
  O19      1.0000 0.51800  0.00000  0.44275  Biso   1.000  O
  O20      1.0000 0.48200  0.50000  0.44275  Biso   1.000  O
  O21      1.0000 0.53000  0.83800  0.43550  Biso   1.000  O
  O22      1.0000 0.53000  0.16200  0.43550  Biso   1.000  O
  O23      1.0000 0.47000  0.66200  0.43550  Biso   1.000  O
  O24      1.0000 0.47000  0.33800  0.43550  Biso   1.000  O
  O25      1.0000 0.97000  0.16200  0.43950  Biso   1.000  O
  O26      1.0000 0.97000  0.83800  0.43950  Biso   1.000  O
  O27      1.0000 0.03000  0.33800  0.43950  Biso   1.000  O
  O28      1.0000 0.03000  0.66200  0.43950  Biso   1.000  O
  O29      1.0000 0.19321  0.91266  0.61716  Biso   1.000  O
  O30      1.0000 0.18667  0.09514  0.61841  Biso   1.000  O
  O31      1.0000 0.80794  0.58723  0.61741  Biso   1.000  O
  O32      1.0000 0.81251  0.40549  0.61849  Biso   1.000  O
  O33      1.0000 0.27848  0.10217  0.50772  Biso   1.000  O
  O34      1.0000 0.28301  0.89579  0.50805  Biso   1.000  O
  O35      1.0000 0.72150  0.39901  0.50780  Biso   1.000  O
  O36      1.0000 0.71849  0.60467  0.50830  Biso   1.000  O
  O37      1.0000 0.20329  0.25259  0.49680  Biso   1.000  O
  O38      1.0000 0.79770  0.75489  0.49924  Biso   1.000  O
  O39      1.0000 0.79524  0.24813  0.49681  Biso   1.000  O
  O40      1.0000 0.20376  0.74536  0.49929  Biso   1.000  O
  O41      1.0000 0.10108  0.99925  0.55459  Biso   1.000  O
  O42      1.0000 0.90015  0.50125  0.55468  Biso   1.000  O
  O43      1.0000 0.49349  0.00106  0.57046  Biso   1.000  O
  O44      1.0000 0.50747  0.50013  0.57055  Biso   1.000  O
  O45      1.0000 0.51813  0.14459  0.56580  Biso   1.000  O
  O46      1.0000 0.54844  0.85762  0.57056  Biso   1.000  O
  O47      1.0000 0.48048  0.35677  0.56577  Biso   1.000  O
  O48      1.0000 0.45496  0.64393  0.57104  Biso   1.000  O
  O49      1.0000 0.03945  0.84496  0.55720  Biso   1.000  O
  O50      1.0000 0.02475  0.15338  0.55555  Biso   1.000  O
  O51      1.0000 0.96271  0.65557  0.55733  Biso   1.000  O
  O52      1.0000 0.97357  0.34704  0.55563  Biso   1.000  O
