data_image0
_cell_length_a       3.1894
_cell_length_b       6.42053
_cell_length_c       31.6932
_cell_angle_alpha    90
_cell_angle_beta     90
_cell_angle_gamma    90

_symmetry_space_group_name_H-M    "P 1"
_symmetry_int_tables_number       1

loop_
  _symmetry_equiv_pos_as_xyz
  'x, y, z'

loop_
  _atom_site_label
  _atom_site_occupancy
  _atom_site_fract_x
  _atom_site_fract_y
  _atom_site_fract_z
  _atom_site_thermal_displace_type
  _atom_site_B_iso_or_equiv
  _atom_site_type_symbol
  O1       1.0000 0.00000  0.50000  0.23664  Biso   1.000  O
  O2       1.0000 0.00000  0.00000  0.25690  Biso   1.000  O
  Ir1      1.0000 0.50000  0.00000  0.29742  Biso   1.000  Ir
  O3       1.0000 0.50000  0.30000  0.29742  Biso   1.000  O
  Ir2      1.0000 0.00000  0.50000  0.29742  Biso   1.000  Ir
  O4       1.0000 0.50000  0.70000  0.29742  Biso   1.000  O
  O5       1.0000 0.00000  0.00000  0.33793  Biso   1.000  O
  O6       1.0000 0.00000  0.50000  0.35820  Biso   1.000  O
  Ir3      1.0000 0.00000  0.00000  0.39871  Biso   1.000  Ir
  O7       1.0000 0.50000  0.20000  0.39871  Biso   1.000  O
  Ir4      1.0000 0.50000  0.50000  0.39871  Biso   1.000  Ir
  O8       1.0000 0.50000  0.80000  0.39871  Biso   1.000  O
  O9       1.0000 0.00000  0.50000  0.43924  Biso   1.000  O
  O10      1.0000 0.00000  0.00000  0.45949  Biso   1.000  O
  Ir5      1.0000 0.50000  0.00000  0.50000  Biso   1.000  Ir
  O11      1.0000 0.50000  0.30000  0.50000  Biso   1.000  O
  Ir6      1.0000 0.00000  0.50000  0.50000  Biso   1.000  Ir
  O12      1.0000 0.50000  0.70000  0.50000  Biso   1.000  O
  O13      1.0000 0.00000  0.00000  0.54053  Biso   1.000  O
  O14      1.0000 0.00000  0.50000  0.56078  Biso   1.000  O
  Ir7      1.0000 0.00000  0.00000  0.60131  Biso   1.000  Ir
  O15      1.0000 0.50000  0.20000  0.60131  Biso   1.000  O
  Ir8      1.0000 0.50000  0.50000  0.60131  Biso   1.000  Ir
  O16      1.0000 0.50000  0.80000  0.60131  Biso   1.000  O
  O17      1.0000 0.00000  0.50000  0.64181  Biso   1.000  O
  O18      1.0000 0.00000  0.00000  0.66207  Biso   1.000  O
  Ir9      1.0000 0.50000  0.00000  0.70260  Biso   1.000  Ir
  O19      1.0000 0.50000  0.30000  0.70260  Biso   1.000  O
  Ir10     1.0000 0.00000  0.50000  0.70260  Biso   1.000  Ir
  O20      1.0000 0.50000  0.70000  0.70260  Biso   1.000  O
  O21      1.0000 0.00000  0.00000  0.74310  Biso   1.000  O
  O22      1.0000 0.00000  0.50000  0.76336  Biso   1.000  O
