data_image0
_cell_length_a       3.1894
_cell_length_b       6.42053
_cell_length_c       38.1141
_cell_angle_alpha    90
_cell_angle_beta     90
_cell_angle_gamma    90

_symmetry_space_group_name_H-M    "P 1"
_symmetry_int_tables_number       1

loop_
  _symmetry_equiv_pos_as_xyz
  'x, y, z'

loop_
  _atom_site_label
  _atom_site_occupancy
  _atom_site_fract_x
  _atom_site_fract_y
  _atom_site_fract_z
  _atom_site_thermal_displace_type
  _atom_site_B_iso_or_equiv
  _atom_site_type_symbol
  O1       1.0000 0.00000  0.50000  0.19678  Biso   1.000  O
  O2       1.0000 0.00000  0.00000  0.21362  Biso   1.000  O
  Ir1      1.0000 0.50000  0.00000  0.24732  Biso   1.000  Ir
  O3       1.0000 0.50000  0.30000  0.24732  Biso   1.000  O
  Ir2      1.0000 0.00000  0.50000  0.24732  Biso   1.000  Ir
  O4       1.0000 0.50000  0.70000  0.24732  Biso   1.000  O
  O5       1.0000 0.00000  0.00000  0.28100  Biso   1.000  O
  O6       1.0000 0.00000  0.50000  0.29786  Biso   1.000  O
  Ir3      1.0000 0.00000  0.00000  0.33154  Biso   1.000  Ir
  O7       1.0000 0.50000  0.20000  0.33154  Biso   1.000  O
  Ir4      1.0000 0.50000  0.50000  0.33154  Biso   1.000  Ir
  O8       1.0000 0.50000  0.80000  0.33154  Biso   1.000  O
  O9       1.0000 0.00000  0.50000  0.36524  Biso   1.000  O
  O10      1.0000 0.00000  0.00000  0.38208  Biso   1.000  O
  Ir5      1.0000 0.50000  0.00000  0.41577  Biso   1.000  Ir
  O11      1.0000 0.50000  0.30000  0.41577  Biso   1.000  O
  Ir6      1.0000 0.00000  0.50000  0.41577  Biso   1.000  Ir
  O12      1.0000 0.50000  0.70000  0.41577  Biso   1.000  O
  O13      1.0000 0.00000  0.00000  0.44947  Biso   1.000  O
  O14      1.0000 0.00000  0.50000  0.46631  Biso   1.000  O
  Ir7      1.0000 0.00000  0.00000  0.50001  Biso   1.000  Ir
  O15      1.0000 0.50000  0.20000  0.50001  Biso   1.000  O
  Ir8      1.0000 0.50000  0.50000  0.50001  Biso   1.000  Ir
  O16      1.0000 0.50000  0.80000  0.50001  Biso   1.000  O
  O17      1.0000 0.00000  0.50000  0.53369  Biso   1.000  O
  O18      1.0000 0.00000  0.00000  0.55053  Biso   1.000  O
  Ir9      1.0000 0.50000  0.00000  0.58423  Biso   1.000  Ir
  O19      1.0000 0.50000  0.30000  0.58423  Biso   1.000  O
  Ir10     1.0000 0.00000  0.50000  0.58423  Biso   1.000  Ir
  O20      1.0000 0.50000  0.70000  0.58423  Biso   1.000  O
  O21      1.0000 0.00000  0.00000  0.61792  Biso   1.000  O
  O22      1.0000 0.00000  0.50000  0.63476  Biso   1.000  O
  Ir11     1.0000 0.00000  0.00000  0.66846  Biso   1.000  Ir
  O23      1.0000 0.50000  0.20000  0.66846  Biso   1.000  O
  Ir12     1.0000 0.50000  0.50000  0.66846  Biso   1.000  Ir
  O24      1.0000 0.50000  0.80000  0.66846  Biso   1.000  O
  O25      1.0000 0.00000  0.50000  0.70214  Biso   1.000  O
  O26      1.0000 0.00000  0.00000  0.71900  Biso   1.000  O
  Ir13     1.0000 0.50000  0.00000  0.75268  Biso   1.000  Ir
  O27      1.0000 0.50000  0.30000  0.75268  Biso   1.000  O
  Ir14     1.0000 0.00000  0.50000  0.75268  Biso   1.000  Ir
  O28      1.0000 0.50000  0.70000  0.75268  Biso   1.000  O
  O29      1.0000 0.00000  0.00000  0.78638  Biso   1.000  O
  O30      1.0000 0.00000  0.50000  0.80322  Biso   1.000  O
