data_image0
_cell_length_a       3.1894
_cell_length_b       6.42053
_cell_length_c       57.3756
_cell_angle_alpha    90
_cell_angle_beta     90
_cell_angle_gamma    90

_symmetry_space_group_name_H-M    "P 1"
_symmetry_int_tables_number       1

loop_
  _symmetry_equiv_pos_as_xyz
  'x, y, z'

loop_
  _atom_site_label
  _atom_site_occupancy
  _atom_site_fract_x
  _atom_site_fract_y
  _atom_site_fract_z
  _atom_site_thermal_displace_type
  _atom_site_B_iso_or_equiv
  _atom_site_type_symbol
  O1       1.0000 0.00000  0.50000  0.13072  Biso   1.000  O
  O2       1.0000 0.00000  0.00000  0.14191  Biso   1.000  O
  Ir1      1.0000 0.50000  0.00000  0.16429  Biso   1.000  Ir
  O3       1.0000 0.50000  0.30000  0.16429  Biso   1.000  O
  Ir2      1.0000 0.00000  0.50000  0.16429  Biso   1.000  Ir
  O4       1.0000 0.50000  0.70000  0.16429  Biso   1.000  O
  O5       1.0000 0.00000  0.00000  0.18667  Biso   1.000  O
  O6       1.0000 0.00000  0.50000  0.19787  Biso   1.000  O
  Ir3      1.0000 0.00000  0.00000  0.22024  Biso   1.000  Ir
  O7       1.0000 0.50000  0.20000  0.22024  Biso   1.000  O
  Ir4      1.0000 0.50000  0.50000  0.22024  Biso   1.000  Ir
  O8       1.0000 0.50000  0.80000  0.22024  Biso   1.000  O
  O9       1.0000 0.00000  0.50000  0.24263  Biso   1.000  O
  O10      1.0000 0.00000  0.00000  0.25382  Biso   1.000  O
  Ir5      1.0000 0.50000  0.00000  0.27619  Biso   1.000  Ir
  O11      1.0000 0.50000  0.30000  0.27619  Biso   1.000  O
  Ir6      1.0000 0.00000  0.50000  0.27619  Biso   1.000  Ir
  O12      1.0000 0.50000  0.70000  0.27619  Biso   1.000  O
  O13      1.0000 0.00000  0.00000  0.29858  Biso   1.000  O
  O14      1.0000 0.00000  0.50000  0.30976  Biso   1.000  O
  Ir7      1.0000 0.00000  0.00000  0.33215  Biso   1.000  Ir
  O15      1.0000 0.50000  0.20000  0.33215  Biso   1.000  O
  Ir8      1.0000 0.50000  0.50000  0.33215  Biso   1.000  Ir
  O16      1.0000 0.50000  0.80000  0.33215  Biso   1.000  O
  O17      1.0000 0.00000  0.50000  0.35453  Biso   1.000  O
  O18      1.0000 0.00000  0.00000  0.36571  Biso   1.000  O
  Ir9      1.0000 0.50000  0.00000  0.38810  Biso   1.000  Ir
  O19      1.0000 0.50000  0.30000  0.38810  Biso   1.000  O
  Ir10     1.0000 0.00000  0.50000  0.38810  Biso   1.000  Ir
  O20      1.0000 0.50000  0.70000  0.38810  Biso   1.000  O
  O21      1.0000 0.00000  0.00000  0.41048  Biso   1.000  O
  O22      1.0000 0.00000  0.50000  0.42166  Biso   1.000  O
  Ir11     1.0000 0.00000  0.00000  0.44405  Biso   1.000  Ir
  O23      1.0000 0.50000  0.20000  0.44405  Biso   1.000  O
  Ir12     1.0000 0.50000  0.50000  0.44405  Biso   1.000  Ir
  O24      1.0000 0.50000  0.80000  0.44405  Biso   1.000  O
  O25      1.0000 0.00000  0.50000  0.46643  Biso   1.000  O
  O26      1.0000 0.00000  0.00000  0.47762  Biso   1.000  O
  Ir13     1.0000 0.50000  0.00000  0.50000  Biso   1.000  Ir
  O27      1.0000 0.50000  0.30000  0.50000  Biso   1.000  O
  Ir14     1.0000 0.00000  0.50000  0.50000  Biso   1.000  Ir
  O28      1.0000 0.50000  0.70000  0.50000  Biso   1.000  O
  O29      1.0000 0.00000  0.00000  0.52239  Biso   1.000  O
  O30      1.0000 0.00000  0.50000  0.53357  Biso   1.000  O
  Ir15     1.0000 0.00000  0.00000  0.55595  Biso   1.000  Ir
  O31      1.0000 0.50000  0.20000  0.55595  Biso   1.000  O
  Ir16     1.0000 0.50000  0.50000  0.55595  Biso   1.000  Ir
  O32      1.0000 0.50000  0.80000  0.55595  Biso   1.000  O
  O33      1.0000 0.00000  0.50000  0.57834  Biso   1.000  O
  O34      1.0000 0.00000  0.00000  0.58952  Biso   1.000  O
  Ir17     1.0000 0.50000  0.00000  0.61191  Biso   1.000  Ir
  O35      1.0000 0.50000  0.30000  0.61191  Biso   1.000  O
  Ir18     1.0000 0.00000  0.50000  0.61191  Biso   1.000  Ir
  O36      1.0000 0.50000  0.70000  0.61191  Biso   1.000  O
  O37      1.0000 0.00000  0.00000  0.63429  Biso   1.000  O
  O38      1.0000 0.00000  0.50000  0.64547  Biso   1.000  O
  Ir19     1.0000 0.00000  0.00000  0.66786  Biso   1.000  Ir
  O39      1.0000 0.50000  0.20000  0.66786  Biso   1.000  O
  Ir20     1.0000 0.50000  0.50000  0.66786  Biso   1.000  Ir
  O40      1.0000 0.50000  0.80000  0.66786  Biso   1.000  O
  O41      1.0000 0.00000  0.50000  0.69024  Biso   1.000  O
  O42      1.0000 0.00000  0.00000  0.70142  Biso   1.000  O
  Ir21     1.0000 0.50000  0.00000  0.72381  Biso   1.000  Ir
  O43      1.0000 0.50000  0.30000  0.72381  Biso   1.000  O
  Ir22     1.0000 0.00000  0.50000  0.72381  Biso   1.000  Ir
  O44      1.0000 0.50000  0.70000  0.72381  Biso   1.000  O
  O45      1.0000 0.00000  0.00000  0.74618  Biso   1.000  O
  O46      1.0000 0.00000  0.50000  0.75738  Biso   1.000  O
  Ir23     1.0000 0.00000  0.00000  0.77976  Biso   1.000  Ir
  O47      1.0000 0.50000  0.20000  0.77976  Biso   1.000  O
  Ir24     1.0000 0.50000  0.50000  0.77976  Biso   1.000  Ir
  O48      1.0000 0.50000  0.80000  0.77976  Biso   1.000  O
  O49      1.0000 0.00000  0.50000  0.80215  Biso   1.000  O
  O50      1.0000 0.00000  0.00000  0.81333  Biso   1.000  O
  Ir25     1.0000 0.50000  0.00000  0.83571  Biso   1.000  Ir
  O51      1.0000 0.50000  0.30000  0.83571  Biso   1.000  O
  Ir26     1.0000 0.00000  0.50000  0.83571  Biso   1.000  Ir
  O52      1.0000 0.50000  0.70000  0.83571  Biso   1.000  O
  O53      1.0000 0.00000  0.00000  0.85809  Biso   1.000  O
  O54      1.0000 0.00000  0.50000  0.86928  Biso   1.000  O
