data_image0
_cell_length_a       4.88305
_cell_length_b       5.1456
_cell_length_c       38.3446
_cell_angle_alpha    90
_cell_angle_beta     90
_cell_angle_gamma    61.674

_symmetry_space_group_name_H-M    "P 1"
_symmetry_int_tables_number       1

loop_
  _symmetry_equiv_pos_as_xyz
  'x, y, z'

loop_
  _atom_site_label
  _atom_site_occupancy
  _atom_site_fract_x
  _atom_site_fract_y
  _atom_site_fract_z
  _atom_site_thermal_displace_type
  _atom_site_B_iso_or_equiv
  _atom_site_type_symbol
  O1       1.0000 0.27143  0.42007  0.19559  Biso   1.000  O
  O2       1.0000 0.37098  0.87524  0.21179  Biso   1.000  O
  O3       1.0000 0.81626  0.33040  0.22795  Biso   1.000  O
  Ir1      1.0000 0.37801  0.55260  0.23799  Biso   1.000  Ir
  O4       1.0000 0.93977  0.77479  0.24801  Biso   1.000  O
  O5       1.0000 0.38502  0.22996  0.26419  Biso   1.000  O
  O6       1.0000 0.48460  0.68513  0.28035  Biso   1.000  O
  Ir2      1.0000 0.70065  0.90732  0.29040  Biso   1.000  Ir
  O7       1.0000 0.91671  0.12952  0.30041  Biso   1.000  O
  O8       1.0000 0.01626  0.58468  0.31660  Biso   1.000  O
  O9       1.0000 0.46154  0.03985  0.33276  Biso   1.000  O
  Ir3      1.0000 0.02329  0.26205  0.34280  Biso   1.000  Ir
  O10      1.0000 0.58505  0.48424  0.35281  Biso   1.000  O
  O11      1.0000 0.03030  0.93941  0.36900  Biso   1.000  O
  O12      1.0000 0.12988  0.39458  0.38517  Biso   1.000  O
  Ir4      1.0000 0.34593  0.61677  0.39521  Biso   1.000  Ir
  O13      1.0000 0.56198  0.83897  0.40523  Biso   1.000  O
  O14      1.0000 0.66153  0.29413  0.42141  Biso   1.000  O
  O15      1.0000 0.10682  0.74930  0.43757  Biso   1.000  O
  Ir5      1.0000 0.66856  0.97149  0.44761  Biso   1.000  Ir
  O16      1.0000 0.23032  0.19368  0.45763  Biso   1.000  O
  O17      1.0000 0.67557  0.64885  0.47382  Biso   1.000  O
  O18      1.0000 0.77515  0.10402  0.48997  Biso   1.000  O
  Ir6      1.0000 0.99120  0.32622  0.50001  Biso   1.000  Ir
  O19      1.0000 0.20726  0.54841  0.51003  Biso   1.000  O
  O20      1.0000 0.30681  0.00358  0.52622  Biso   1.000  O
  O21      1.0000 0.75209  0.45874  0.54238  Biso   1.000  O
  Ir7      1.0000 0.31384  0.68094  0.55242  Biso   1.000  Ir
  O22      1.0000 0.87560  0.90313  0.56243  Biso   1.000  O
  O23      1.0000 0.32085  0.35830  0.57862  Biso   1.000  O
  O24      1.0000 0.42043  0.81347  0.59479  Biso   1.000  O
  Ir8      1.0000 0.63648  0.03566  0.60483  Biso   1.000  Ir
  O25      1.0000 0.85254  0.25786  0.61485  Biso   1.000  O
  O26      1.0000 0.95209  0.71302  0.63103  Biso   1.000  O
  O27      1.0000 0.39737  0.16819  0.64719  Biso   1.000  O
  Ir9      1.0000 0.95912  0.39039  0.65723  Biso   1.000  Ir
  O28      1.0000 0.52088  0.61258  0.66725  Biso   1.000  O
  O29      1.0000 0.96613  0.06775  0.68344  Biso   1.000  O
  O30      1.0000 0.06571  0.52292  0.69960  Biso   1.000  O
  Ir10     1.0000 0.28176  0.74511  0.70963  Biso   1.000  Ir
  O31      1.0000 0.49781  0.96731  0.71965  Biso   1.000  O
  O32      1.0000 0.59736  0.42247  0.73581  Biso   1.000  O
  O33      1.0000 0.04265  0.87764  0.75200  Biso   1.000  O
  Ir11     1.0000 0.60439  0.09983  0.76202  Biso   1.000  Ir
  O34      1.0000 0.16615  0.32202  0.77207  Biso   1.000  O
  O35      1.0000 0.61140  0.77719  0.78821  Biso   1.000  O
  O36      1.0000 0.71098  0.23236  0.80441  Biso   1.000  O
  H1       1.0000 0.71098  0.11576  0.82267  Biso   1.000  H
  H2       1.0000 0.27143  0.55611  0.17733  Biso   1.000  H
