data_image0
_cell_length_a       3.1894
_cell_length_b       6.42053
_cell_length_c       62.8699
_cell_angle_alpha    90
_cell_angle_beta     90
_cell_angle_gamma    90

_symmetry_space_group_name_H-M    "P 1"
_symmetry_int_tables_number       1

loop_
  _symmetry_equiv_pos_as_xyz
  'x, y, z'

loop_
  _atom_site_label
  _atom_site_occupancy
  _atom_site_fract_x
  _atom_site_fract_y
  _atom_site_fract_z
  _atom_site_thermal_displace_type
  _atom_site_B_iso_or_equiv
  _atom_site_type_symbol
  O1       1.0000 0.00000  0.50000  0.14767  Biso   1.000  O
  O2       1.0000 0.00000  0.00000  0.15788  Biso   1.000  O
  Ir1      1.0000 0.50000  0.00000  0.17831  Biso   1.000  Ir
  O3       1.0000 0.50000  0.30000  0.17831  Biso   1.000  O
  Ir2      1.0000 0.00000  0.50000  0.17831  Biso   1.000  Ir
  O4       1.0000 0.50000  0.70000  0.17831  Biso   1.000  O
  O5       1.0000 0.00000  0.00000  0.19873  Biso   1.000  O
  O6       1.0000 0.00000  0.50000  0.20895  Biso   1.000  O
  Ir3      1.0000 0.00000  0.00000  0.22937  Biso   1.000  Ir
  O7       1.0000 0.50000  0.20000  0.22937  Biso   1.000  O
  Ir4      1.0000 0.50000  0.50000  0.22937  Biso   1.000  Ir
  O8       1.0000 0.50000  0.80000  0.22937  Biso   1.000  O
  O9       1.0000 0.00000  0.50000  0.24980  Biso   1.000  O
  O10      1.0000 0.00000  0.00000  0.26001  Biso   1.000  O
  Ir5      1.0000 0.50000  0.00000  0.28043  Biso   1.000  Ir
  O11      1.0000 0.50000  0.30000  0.28043  Biso   1.000  O
  Ir6      1.0000 0.00000  0.50000  0.28043  Biso   1.000  Ir
  O12      1.0000 0.50000  0.70000  0.28043  Biso   1.000  O
  O13      1.0000 0.00000  0.00000  0.30086  Biso   1.000  O
  O14      1.0000 0.00000  0.50000  0.31107  Biso   1.000  O
