data_image0
_cell_length_a       4.69635
_cell_length_b       8.72335
_cell_length_c       43.3312
_cell_angle_alpha    90
_cell_angle_beta     90
_cell_angle_gamma    90

loop_
  _atom_site_label
  _atom_site_occupancy
  _atom_site_fract_x
  _atom_site_fract_y
  _atom_site_fract_z
  _atom_site_thermal_displace_type
  _atom_site_B_iso_or_equiv
  _atom_site_type_symbol
  Ir1      1.0000 0.18033  0.17534  0.18462  Biso   1.000  Ir
  Ir2      1.0000 0.18033  0.82466  0.18462  Biso   1.000  Ir
  O1       1.0000 0.36068  0.00000  0.20417  Biso   1.000  O
  O2       1.0000 0.39273  0.32474  0.20765  Biso   1.000  O
  O3       1.0000 0.39273  0.67526  0.20765  Biso   1.000  O
  O4       1.0000 0.89272  0.17526  0.21580  Biso   1.000  O
  O5       1.0000 0.89272  0.82474  0.21580  Biso   1.000  O
  O6       1.0000 0.86068  0.50000  0.21927  Biso   1.000  O
  Ir3      1.0000 0.68033  0.32466  0.23882  Biso   1.000  Ir
  Ir4      1.0000 0.68033  0.67535  0.23882  Biso   1.000  Ir
  O7       1.0000 0.49998  0.50000  0.25836  Biso   1.000  O
  O8       1.0000 0.46794  0.17526  0.26184  Biso   1.000  O
  O9       1.0000 0.46794  0.82474  0.26184  Biso   1.000  O
  O10      1.0000 0.96794  0.32474  0.26999  Biso   1.000  O
  O11      1.0000 0.96794  0.67526  0.26999  Biso   1.000  O
  O12      1.0000 0.99999  0.00000  0.27346  Biso   1.000  O
  Ir5      1.0000 0.18033  0.17534  0.29301  Biso   1.000  Ir
  Ir6      1.0000 0.18033  0.82466  0.29301  Biso   1.000  Ir
  O13      1.0000 0.36068  0.00000  0.31255  Biso   1.000  O
  O14      1.0000 0.39273  0.32474  0.31603  Biso   1.000  O
  O15      1.0000 0.39273  0.67526  0.31603  Biso   1.000  O
  O16      1.0000 0.89272  0.17526  0.32418  Biso   1.000  O
  O17      1.0000 0.89272  0.82474  0.32418  Biso   1.000  O
  O18      1.0000 0.86068  0.50000  0.32765  Biso   1.000  O
  Ir7      1.0000 0.68033  0.32466  0.34720  Biso   1.000  Ir
  Ir8      1.0000 0.68033  0.67535  0.34720  Biso   1.000  Ir
  O19      1.0000 0.49998  0.50000  0.36675  Biso   1.000  O
  O20      1.0000 0.46794  0.17526  0.37022  Biso   1.000  O
  O21      1.0000 0.46794  0.82474  0.37022  Biso   1.000  O
  O22      1.0000 0.96794  0.32474  0.37837  Biso   1.000  O
  O23      1.0000 0.96794  0.67526  0.37837  Biso   1.000  O
  O24      1.0000 0.99999  0.00000  0.38184  Biso   1.000  O
  Ir9      1.0000 0.18033  0.17534  0.40139  Biso   1.000  Ir
  Ir10     1.0000 0.18033  0.82466  0.40139  Biso   1.000  Ir
  O25      1.0000 0.36068  0.00000  0.42094  Biso   1.000  O
  O26      1.0000 0.39273  0.32474  0.42441  Biso   1.000  O
  O27      1.0000 0.39273  0.67526  0.42441  Biso   1.000  O
  O28      1.0000 0.89272  0.17526  0.43256  Biso   1.000  O
  O29      1.0000 0.89272  0.82474  0.43256  Biso   1.000  O
  O30      1.0000 0.86068  0.50000  0.43603  Biso   1.000  O
  Ir11     1.0000 0.68033  0.32466  0.45558  Biso   1.000  Ir
  Ir12     1.0000 0.68033  0.67535  0.45558  Biso   1.000  Ir
  O31      1.0000 0.49998  0.50000  0.47513  Biso   1.000  O
  O32      1.0000 0.46794  0.17526  0.47860  Biso   1.000  O
  O33      1.0000 0.46794  0.82474  0.47860  Biso   1.000  O
  O34      1.0000 0.96794  0.32474  0.48675  Biso   1.000  O
  O35      1.0000 0.96794  0.67526  0.48675  Biso   1.000  O
  O36      1.0000 0.99999  0.00000  0.49023  Biso   1.000  O
  Ir13     1.0000 0.18034  0.17534  0.50977  Biso   1.000  Ir
  Ir14     1.0000 0.18034  0.82466  0.50977  Biso   1.000  Ir
  O37      1.0000 0.36069  0.00000  0.52932  Biso   1.000  O
  O38      1.0000 0.39274  0.32474  0.53279  Biso   1.000  O
  O39      1.0000 0.39274  0.67526  0.53279  Biso   1.000  O
  O40      1.0000 0.89273  0.17526  0.54094  Biso   1.000  O
  O41      1.0000 0.89273  0.82474  0.54094  Biso   1.000  O
  O42      1.0000 0.86069  0.50000  0.54442  Biso   1.000  O
  Ir15     1.0000 0.68034  0.32466  0.56396  Biso   1.000  Ir
  Ir16     1.0000 0.68034  0.67535  0.56396  Biso   1.000  Ir
  O43      1.0000 0.49999  0.50000  0.58351  Biso   1.000  O
  O44      1.0000 0.46795  0.17526  0.58698  Biso   1.000  O
  O45      1.0000 0.46795  0.82474  0.58698  Biso   1.000  O
  O46      1.0000 0.96795  0.32474  0.59514  Biso   1.000  O
  O47      1.0000 0.96795  0.67526  0.59514  Biso   1.000  O
  O48      1.0000 1.00000  0.00000  0.59861  Biso   1.000  O
  Ir17     1.0000 0.18034  0.17534  0.61816  Biso   1.000  Ir
  Ir18     1.0000 0.18034  0.82466  0.61816  Biso   1.000  Ir
  O49      1.0000 0.36069  0.00000  0.63770  Biso   1.000  O
  O50      1.0000 0.39274  0.32474  0.64118  Biso   1.000  O
  O51      1.0000 0.39274  0.67526  0.64118  Biso   1.000  O
  O52      1.0000 0.89273  0.17526  0.64933  Biso   1.000  O
  O53      1.0000 0.89273  0.82474  0.64933  Biso   1.000  O
  O54      1.0000 0.86069  0.50000  0.65280  Biso   1.000  O
  Ir19     1.0000 0.68034  0.32466  0.67235  Biso   1.000  Ir
  Ir20     1.0000 0.68034  0.67535  0.67235  Biso   1.000  Ir
  O55      1.0000 0.49999  0.50000  0.69189  Biso   1.000  O
  O56      1.0000 0.46795  0.17526  0.69537  Biso   1.000  O
  O57      1.0000 0.46795  0.82474  0.69537  Biso   1.000  O
  O58      1.0000 0.96795  0.32474  0.70352  Biso   1.000  O
  O59      1.0000 0.96795  0.67526  0.70352  Biso   1.000  O
  O60      1.0000 1.00000  0.00000  0.70699  Biso   1.000  O
  Ir21     1.0000 0.18034  0.17534  0.72654  Biso   1.000  Ir
  Ir22     1.0000 0.18034  0.82466  0.72654  Biso   1.000  Ir
  O61      1.0000 0.36069  0.00000  0.74609  Biso   1.000  O
  O62      1.0000 0.39274  0.32474  0.74956  Biso   1.000  O
  O63      1.0000 0.39274  0.67526  0.74956  Biso   1.000  O
  O64      1.0000 0.89273  0.17526  0.75771  Biso   1.000  O
  O65      1.0000 0.89273  0.82474  0.75771  Biso   1.000  O
  O66      1.0000 0.86069  0.50000  0.76118  Biso   1.000  O
  Ir23     1.0000 0.68034  0.32466  0.78073  Biso   1.000  Ir
  Ir24     1.0000 0.68034  0.67535  0.78073  Biso   1.000  Ir
  O67      1.0000 0.49999  0.50000  0.80028  Biso   1.000  O
  O68      1.0000 0.46795  0.17526  0.80375  Biso   1.000  O
  O69      1.0000 0.46795  0.82474  0.80375  Biso   1.000  O
  O70      1.0000 0.96795  0.32474  0.81190  Biso   1.000  O
  O71      1.0000 0.96795  0.67526  0.81190  Biso   1.000  O
  O72      1.0000 0.00000  0.00000  0.81538  Biso   1.000  O
