data_image0
_cell_length_a       4.69635
_cell_length_b       8.72335
_cell_length_c       27.0937
_cell_angle_alpha    90
_cell_angle_beta     90
_cell_angle_gamma    90

_symmetry_space_group_name_H-M    "P 1"
_symmetry_int_tables_number       1

loop_
  _symmetry_equiv_pos_as_xyz
  'x, y, z'

loop_
  _atom_site_label
  _atom_site_occupancy
  _atom_site_fract_x
  _atom_site_fract_y
  _atom_site_fract_z
  _atom_site_thermal_displace_type
  _atom_site_B_iso_or_equiv
  _atom_site_type_symbol
  O1       1.0000 0.39273  0.32474  0.27682  Biso   1.000  O
  O2       1.0000 0.39273  0.67526  0.27682  Biso   1.000  O
  O3       1.0000 0.89272  0.17526  0.28985  Biso   1.000  O
  O4       1.0000 0.89272  0.82474  0.28985  Biso   1.000  O
  O5       1.0000 0.86068  0.50000  0.29540  Biso   1.000  O
  Ir1      1.0000 0.68033  0.32466  0.32667  Biso   1.000  Ir
  Ir2      1.0000 0.68033  0.67535  0.32667  Biso   1.000  Ir
  O6       1.0000 0.49998  0.50000  0.35792  Biso   1.000  O
  O7       1.0000 0.46794  0.17526  0.36348  Biso   1.000  O
  O8       1.0000 0.46794  0.82474  0.36348  Biso   1.000  O
  O9       1.0000 0.96794  0.32474  0.37652  Biso   1.000  O
  O10      1.0000 0.96794  0.67526  0.37652  Biso   1.000  O
  O11      1.0000 0.99999  0.00000  0.38207  Biso   1.000  O
  Ir3      1.0000 0.18033  0.17534  0.41333  Biso   1.000  Ir
  Ir4      1.0000 0.18033  0.82466  0.41333  Biso   1.000  Ir
  O12      1.0000 0.36068  0.00000  0.44458  Biso   1.000  O
  O13      1.0000 0.39273  0.32474  0.45015  Biso   1.000  O
  O14      1.0000 0.39273  0.67526  0.45015  Biso   1.000  O
  O15      1.0000 0.89272  0.17526  0.46318  Biso   1.000  O
  O16      1.0000 0.89272  0.82474  0.46318  Biso   1.000  O
  O17      1.0000 0.86068  0.50000  0.46873  Biso   1.000  O
  Ir5      1.0000 0.68033  0.32466  0.50000  Biso   1.000  Ir
  Ir6      1.0000 0.68033  0.67535  0.50000  Biso   1.000  Ir
  O18      1.0000 0.49998  0.50000  0.53127  Biso   1.000  O
  O19      1.0000 0.46794  0.17526  0.53682  Biso   1.000  O
  O20      1.0000 0.46794  0.82474  0.53682  Biso   1.000  O
  O21      1.0000 0.96794  0.32474  0.54985  Biso   1.000  O
  O22      1.0000 0.96794  0.67526  0.54985  Biso   1.000  O
  O23      1.0000 0.99999  0.00000  0.55540  Biso   1.000  O
  Ir7      1.0000 0.18033  0.17534  0.58667  Biso   1.000  Ir
  Ir8      1.0000 0.18033  0.82466  0.58667  Biso   1.000  Ir
  O24      1.0000 0.36068  0.00000  0.61793  Biso   1.000  O
  O25      1.0000 0.39273  0.32474  0.62348  Biso   1.000  O
  O26      1.0000 0.39273  0.67526  0.62348  Biso   1.000  O
  O27      1.0000 0.89272  0.17526  0.63652  Biso   1.000  O
  O28      1.0000 0.89272  0.82474  0.63652  Biso   1.000  O
  O29      1.0000 0.86068  0.50000  0.64207  Biso   1.000  O
  Ir9      1.0000 0.68033  0.32466  0.67333  Biso   1.000  Ir
  Ir10     1.0000 0.68033  0.67535  0.67333  Biso   1.000  Ir
  O30      1.0000 0.49998  0.50000  0.70460  Biso   1.000  O
  O31      1.0000 0.46794  0.17526  0.71015  Biso   1.000  O
  O32      1.0000 0.46794  0.82474  0.71015  Biso   1.000  O
  O33      1.0000 0.96794  0.32474  0.72318  Biso   1.000  O
  O34      1.0000 0.96794  0.67526  0.72318  Biso   1.000  O
