data_image0
_cell_length_a       4.88305
_cell_length_b       5.1456
_cell_length_c       26.2871
_cell_angle_alpha    90
_cell_angle_beta     90
_cell_angle_gamma    61.674

_symmetry_space_group_name_H-M    "P 1"
_symmetry_int_tables_number       1

loop_
  _symmetry_equiv_pos_as_xyz
  'x, y, z'

loop_
  _atom_site_label
  _atom_site_occupancy
  _atom_site_fract_x
  _atom_site_fract_y
  _atom_site_fract_z
  _atom_site_thermal_displace_type
  _atom_site_B_iso_or_equiv
  _atom_site_type_symbol
  O1       1.0000 0.01475  0.93343  0.28531  Biso   1.000  O
  O2       1.0000 0.11430  0.38860  0.30890  Biso   1.000  O
  O3       1.0000 0.55958  0.84376  0.33249  Biso   1.000  O
  Ir1      1.0000 0.12133  0.06596  0.34712  Biso   1.000  Ir
  O4       1.0000 0.68309  0.28815  0.36175  Biso   1.000  O
  O5       1.0000 0.12834  0.74332  0.38534  Biso   1.000  O
  O6       1.0000 0.22792  0.19849  0.40893  Biso   1.000  O
  Ir2      1.0000 0.44397  0.42068  0.42356  Biso   1.000  Ir
  O7       1.0000 0.66003  0.64288  0.43819  Biso   1.000  O
  O8       1.0000 0.75958  0.09804  0.46178  Biso   1.000  O
  O9       1.0000 0.20486  0.55321  0.48537  Biso   1.000  O
  Ir3      1.0000 0.76661  0.77541  0.50000  Biso   1.000  Ir
  O10      1.0000 0.32837  0.99760  0.51463  Biso   1.000  O
  O11      1.0000 0.77362  0.45277  0.53822  Biso   1.000  O
  O12      1.0000 0.87320  0.90794  0.56181  Biso   1.000  O
  Ir4      1.0000 0.08925  0.13013  0.57644  Biso   1.000  Ir
  O13      1.0000 0.30530  0.35233  0.59107  Biso   1.000  O
  O14      1.0000 0.40485  0.80749  0.61466  Biso   1.000  O
  O15      1.0000 0.85014  0.26265  0.63825  Biso   1.000  O
  Ir5      1.0000 0.41188  0.48485  0.65288  Biso   1.000  Ir
  O16      1.0000 0.97364  0.70704  0.66751  Biso   1.000  O
  O17      1.0000 0.41889  0.16221  0.69110  Biso   1.000  O
  O18      1.0000 0.51847  0.61738  0.71469  Biso   1.000  O
