data_image0
_cell_length_a       4.88305
_cell_length_b       5.1456
_cell_length_c       34.325
_cell_angle_alpha    90
_cell_angle_beta     90
_cell_angle_gamma    61.674

_symmetry_space_group_name_H-M    "P 1"
_symmetry_int_tables_number       1

loop_
  _symmetry_equiv_pos_as_xyz
  'x, y, z'

loop_
  _atom_site_label
  _atom_site_occupancy
  _atom_site_fract_x
  _atom_site_fract_y
  _atom_site_fract_z
  _atom_site_thermal_displace_type
  _atom_site_B_iso_or_equiv
  _atom_site_type_symbol
  O1       1.0000 0.36947  0.22399  0.21850  Biso   1.000  O
  O2       1.0000 0.46902  0.67915  0.23657  Biso   1.000  O
  O3       1.0000 0.91431  0.13431  0.25463  Biso   1.000  O
  Ir1      1.0000 0.47605  0.35651  0.26585  Biso   1.000  Ir
  O4       1.0000 0.03781  0.57870  0.27705  Biso   1.000  O
  O5       1.0000 0.48306  0.03387  0.29512  Biso   1.000  O
  O6       1.0000 0.58264  0.48904  0.31317  Biso   1.000  O
  Ir2      1.0000 0.79869  0.71124  0.32439  Biso   1.000  Ir
  O7       1.0000 0.01475  0.93343  0.33559  Biso   1.000  O
  O8       1.0000 0.11430  0.38860  0.35366  Biso   1.000  O
  O9       1.0000 0.55958  0.84376  0.37173  Biso   1.000  O
  Ir3      1.0000 0.12133  0.06596  0.38293  Biso   1.000  Ir
  O10      1.0000 0.68309  0.28815  0.39413  Biso   1.000  O
  O11      1.0000 0.12834  0.74332  0.41220  Biso   1.000  O
  O12      1.0000 0.22792  0.19849  0.43027  Biso   1.000  O
  Ir4      1.0000 0.44397  0.42068  0.44147  Biso   1.000  Ir
  O13      1.0000 0.66003  0.64288  0.45267  Biso   1.000  O
  O14      1.0000 0.75958  0.09804  0.47074  Biso   1.000  O
  O15      1.0000 0.20486  0.55321  0.48881  Biso   1.000  O
  Ir5      1.0000 0.76661  0.77541  0.50001  Biso   1.000  Ir
  O16      1.0000 0.32837  0.99760  0.51121  Biso   1.000  O
  O17      1.0000 0.77362  0.45277  0.52928  Biso   1.000  O
  O18      1.0000 0.87320  0.90794  0.54734  Biso   1.000  O
  Ir6      1.0000 0.08925  0.13013  0.55855  Biso   1.000  Ir
  O19      1.0000 0.30530  0.35233  0.56975  Biso   1.000  O
  O20      1.0000 0.40485  0.80749  0.58782  Biso   1.000  O
  O21      1.0000 0.85014  0.26265  0.60588  Biso   1.000  O
  Ir7      1.0000 0.41188  0.48485  0.61709  Biso   1.000  Ir
  O22      1.0000 0.97364  0.70704  0.62829  Biso   1.000  O
  O23      1.0000 0.41889  0.16221  0.64636  Biso   1.000  O
  O24      1.0000 0.51847  0.61738  0.66442  Biso   1.000  O
  Ir8      1.0000 0.73452  0.83958  0.67563  Biso   1.000  Ir
  O25      1.0000 0.95058  0.06177  0.68683  Biso   1.000  O
  O26      1.0000 0.05013  0.51694  0.70489  Biso   1.000  O
  O27      1.0000 0.49541  0.97210  0.72296  Biso   1.000  O
  Ir9      1.0000 0.05716  0.19430  0.73418  Biso   1.000  Ir
  O28      1.0000 0.61892  0.41649  0.74538  Biso   1.000  O
  O29      1.0000 0.06417  0.87166  0.76345  Biso   1.000  O
  O30      1.0000 0.16375  0.32683  0.78150  Biso   1.000  O
