data_image0
_cell_length_a       4.88305
_cell_length_b       5.1456
_cell_length_c       42.363
_cell_angle_alpha    90
_cell_angle_beta     90
_cell_angle_gamma    61.674

_symmetry_space_group_name_H-M    "P 1"
_symmetry_int_tables_number       1

loop_
  _symmetry_equiv_pos_as_xyz
  'x, y, z'

loop_
  _atom_site_label
  _atom_site_occupancy
  _atom_site_fract_x
  _atom_site_fract_y
  _atom_site_fract_z
  _atom_site_thermal_displace_type
  _atom_site_B_iso_or_equiv
  _atom_site_type_symbol
  O1       1.0000 0.72420  0.51454  0.17704  Biso   1.000  O
  O2       1.0000 0.82375  0.96970  0.19168  Biso   1.000  O
  O3       1.0000 0.26903  0.42487  0.20632  Biso   1.000  O
  Ir1      1.0000 0.83078  0.64707  0.21540  Biso   1.000  Ir
  O4       1.0000 0.39254  0.86926  0.22447  Biso   1.000  O
  O5       1.0000 0.83779  0.32443  0.23911  Biso   1.000  O
  O6       1.0000 0.93737  0.77960  0.25375  Biso   1.000  O
  Ir2      1.0000 0.15342  0.00179  0.26283  Biso   1.000  Ir
  O7       1.0000 0.36947  0.22399  0.27190  Biso   1.000  O
  O8       1.0000 0.46902  0.67915  0.28654  Biso   1.000  O
  O9       1.0000 0.91431  0.13431  0.30118  Biso   1.000  O
  Ir3      1.0000 0.47605  0.35651  0.31027  Biso   1.000  Ir
  O10      1.0000 0.03781  0.57870  0.31935  Biso   1.000  O
  O11      1.0000 0.48306  0.03387  0.33399  Biso   1.000  O
  O12      1.0000 0.58264  0.48904  0.34861  Biso   1.000  O
  Ir4      1.0000 0.79869  0.71124  0.35770  Biso   1.000  Ir
  O13      1.0000 0.01475  0.93343  0.36678  Biso   1.000  O
  O14      1.0000 0.11430  0.38860  0.38142  Biso   1.000  O
  O15      1.0000 0.55958  0.84376  0.39606  Biso   1.000  O
  Ir5      1.0000 0.12133  0.06596  0.40514  Biso   1.000  Ir
  O16      1.0000 0.68309  0.28815  0.41421  Biso   1.000  O
  O17      1.0000 0.12834  0.74332  0.42885  Biso   1.000  O
  O18      1.0000 0.22792  0.19849  0.44349  Biso   1.000  O
  Ir6      1.0000 0.44397  0.42068  0.45257  Biso   1.000  Ir
  O19      1.0000 0.66003  0.64288  0.46165  Biso   1.000  O
  O20      1.0000 0.75958  0.09804  0.47628  Biso   1.000  O
  O21      1.0000 0.20486  0.55321  0.49092  Biso   1.000  O
  Ir7      1.0000 0.76661  0.77541  0.50000  Biso   1.000  Ir
  O22      1.0000 0.32837  0.99760  0.50908  Biso   1.000  O
  O23      1.0000 0.77362  0.45277  0.52372  Biso   1.000  O
  O24      1.0000 0.87320  0.90794  0.53835  Biso   1.000  O
  Ir8      1.0000 0.08925  0.13013  0.54743  Biso   1.000  Ir
  O25      1.0000 0.30530  0.35233  0.55651  Biso   1.000  O
  O26      1.0000 0.40485  0.80749  0.57115  Biso   1.000  O
  O27      1.0000 0.85014  0.26265  0.58579  Biso   1.000  O
  Ir9      1.0000 0.41188  0.48485  0.59486  Biso   1.000  Ir
  O28      1.0000 0.97364  0.70704  0.60394  Biso   1.000  O
  O29      1.0000 0.41889  0.16221  0.61858  Biso   1.000  O
  O30      1.0000 0.51847  0.61738  0.63322  Biso   1.000  O
  Ir10     1.0000 0.73452  0.83958  0.64230  Biso   1.000  Ir
  O31      1.0000 0.95058  0.06177  0.65137  Biso   1.000  O
  O32      1.0000 0.05013  0.51694  0.66601  Biso   1.000  O
  O33      1.0000 0.49541  0.97210  0.68065  Biso   1.000  O
  Ir11     1.0000 0.05716  0.19430  0.68974  Biso   1.000  Ir
  O34      1.0000 0.61892  0.41649  0.69882  Biso   1.000  O
  O35      1.0000 0.06417  0.87166  0.71346  Biso   1.000  O
  O36      1.0000 0.16375  0.32683  0.72808  Biso   1.000  O
  Ir12     1.0000 0.37980  0.54902  0.73717  Biso   1.000  Ir
  O37      1.0000 0.59586  0.77122  0.74625  Biso   1.000  O
  O38      1.0000 0.69541  0.22638  0.76089  Biso   1.000  O
  O39      1.0000 0.14069  0.68155  0.77553  Biso   1.000  O
  Ir13     1.0000 0.70244  0.90375  0.78460  Biso   1.000  Ir
  O40      1.0000 0.26420  0.12594  0.79368  Biso   1.000  O
  O41      1.0000 0.70945  0.58111  0.80832  Biso   1.000  O
  O42      1.0000 0.80903  0.03628  0.82296  Biso   1.000  O
