data_image0
_cell_length_a       4.88305
_cell_length_b       5.1456
_cell_length_c       58.4387
_cell_angle_alpha    90
_cell_angle_beta     90
_cell_angle_gamma    61.674

_symmetry_space_group_name_H-M    "P 1"
_symmetry_int_tables_number       1

loop_
  _symmetry_equiv_pos_as_xyz
  'x, y, z'

loop_
  _atom_site_label
  _atom_site_occupancy
  _atom_site_fract_x
  _atom_site_fract_y
  _atom_site_fract_z
  _atom_site_thermal_displace_type
  _atom_site_B_iso_or_equiv
  _atom_site_type_symbol
  O1       1.0000 0.49781  0.96731  0.12834  Biso   1.000  O
  O2       1.0000 0.59736  0.42247  0.13896  Biso   1.000  O
  O3       1.0000 0.04265  0.87764  0.14957  Biso   1.000  O
  Ir1      1.0000 0.60439  0.09983  0.15615  Biso   1.000  Ir
  O4       1.0000 0.16615  0.32202  0.16273  Biso   1.000  O
  O5       1.0000 0.61140  0.77719  0.17334  Biso   1.000  O
  O6       1.0000 0.71098  0.23236  0.18395  Biso   1.000  O
  Ir2      1.0000 0.92703  0.45456  0.19054  Biso   1.000  Ir
  O7       1.0000 0.14309  0.67675  0.19712  Biso   1.000  O
  O8       1.0000 0.24264  0.13192  0.20773  Biso   1.000  O
  O9       1.0000 0.68792  0.58708  0.21834  Biso   1.000  O
  Ir3      1.0000 0.24967  0.80928  0.22491  Biso   1.000  Ir
  O10      1.0000 0.81143  0.03147  0.23150  Biso   1.000  O
  O11      1.0000 0.25668  0.48664  0.24211  Biso   1.000  O
  O12      1.0000 0.35626  0.94181  0.25272  Biso   1.000  O
  Ir4      1.0000 0.57231  0.16400  0.25930  Biso   1.000  Ir
  O13      1.0000 0.78837  0.38620  0.26588  Biso   1.000  O
  O14      1.0000 0.88792  0.84136  0.27650  Biso   1.000  O
  O15      1.0000 0.33320  0.29653  0.28711  Biso   1.000  O
  Ir5      1.0000 0.89495  0.51873  0.29369  Biso   1.000  Ir
  O16      1.0000 0.45671  0.74092  0.30027  Biso   1.000  O
  O17      1.0000 0.90196  0.19609  0.31088  Biso   1.000  O
  O18      1.0000 0.00154  0.65126  0.32149  Biso   1.000  O
  Ir6      1.0000 0.21759  0.87345  0.32808  Biso   1.000  Ir
  O19      1.0000 0.43364  0.09565  0.33466  Biso   1.000  O
  O20      1.0000 0.53319  0.55081  0.34527  Biso   1.000  O
  O21      1.0000 0.97848  0.00597  0.35588  Biso   1.000  O
  Ir7      1.0000 0.54022  0.22817  0.36247  Biso   1.000  Ir
  O22      1.0000 0.10198  0.45036  0.36904  Biso   1.000  O
  O23      1.0000 0.54723  0.90553  0.37965  Biso   1.000  O
  O24      1.0000 0.64681  0.36070  0.39026  Biso   1.000  O
  Ir8      1.0000 0.86286  0.58290  0.39684  Biso   1.000  Ir
  O25      1.0000 0.07892  0.80509  0.40343  Biso   1.000  O
  O26      1.0000 0.17847  0.26026  0.41404  Biso   1.000  O
  O27      1.0000 0.62375  0.71542  0.42465  Biso   1.000  O
  Ir9      1.0000 0.18550  0.93762  0.43123  Biso   1.000  Ir
  O28      1.0000 0.74726  0.15981  0.43781  Biso   1.000  O
  O29      1.0000 0.19251  0.61498  0.44842  Biso   1.000  O
  O30      1.0000 0.29209  0.07015  0.45903  Biso   1.000  O
  Ir10     1.0000 0.50814  0.29234  0.46562  Biso   1.000  Ir
  O31      1.0000 0.72420  0.51454  0.47220  Biso   1.000  O
  O32      1.0000 0.82375  0.96970  0.48281  Biso   1.000  O
  O33      1.0000 0.26903  0.42487  0.49342  Biso   1.000  O
  Ir11     1.0000 0.83078  0.64707  0.50001  Biso   1.000  Ir
  O34      1.0000 0.39254  0.86926  0.50658  Biso   1.000  O
  O35      1.0000 0.83779  0.32443  0.51719  Biso   1.000  O
  O36      1.0000 0.93737  0.77960  0.52780  Biso   1.000  O
  Ir12     1.0000 0.15342  0.00179  0.53438  Biso   1.000  Ir
  O37      1.0000 0.36947  0.22399  0.54097  Biso   1.000  O
  O38      1.0000 0.46902  0.67915  0.55158  Biso   1.000  O
  O39      1.0000 0.91431  0.13431  0.56219  Biso   1.000  O
  Ir13     1.0000 0.47605  0.35651  0.56877  Biso   1.000  Ir
  O40      1.0000 0.03781  0.57870  0.57535  Biso   1.000  O
  O41      1.0000 0.48306  0.03387  0.58596  Biso   1.000  O
  O42      1.0000 0.58264  0.48904  0.59658  Biso   1.000  O
  Ir14     1.0000 0.79869  0.71124  0.60316  Biso   1.000  Ir
  O43      1.0000 0.01475  0.93343  0.60974  Biso   1.000  O
  O44      1.0000 0.11430  0.38860  0.62035  Biso   1.000  O
  O45      1.0000 0.55958  0.84376  0.63096  Biso   1.000  O
  Ir15     1.0000 0.12133  0.06596  0.63755  Biso   1.000  Ir
  O46      1.0000 0.68309  0.28815  0.64412  Biso   1.000  O
  O47      1.0000 0.12834  0.74332  0.65474  Biso   1.000  O
  O48      1.0000 0.22792  0.19849  0.66534  Biso   1.000  O
  Ir16     1.0000 0.44397  0.42068  0.67192  Biso   1.000  Ir
  O49      1.0000 0.66003  0.64288  0.67851  Biso   1.000  O
  O50      1.0000 0.75958  0.09804  0.68912  Biso   1.000  O
  O51      1.0000 0.20486  0.55321  0.69973  Biso   1.000  O
  Ir17     1.0000 0.76661  0.77541  0.70631  Biso   1.000  Ir
  O52      1.0000 0.32837  0.99760  0.71290  Biso   1.000  O
  O53      1.0000 0.77362  0.45277  0.72350  Biso   1.000  O
  O54      1.0000 0.87320  0.90794  0.73412  Biso   1.000  O
  Ir18     1.0000 0.08925  0.13013  0.74070  Biso   1.000  Ir
  O55      1.0000 0.30530  0.35233  0.74728  Biso   1.000  O
  O56      1.0000 0.40485  0.80749  0.75789  Biso   1.000  O
  O57      1.0000 0.85014  0.26265  0.76850  Biso   1.000  O
  Ir19     1.0000 0.41188  0.48485  0.77509  Biso   1.000  Ir
  O58      1.0000 0.97364  0.70704  0.78166  Biso   1.000  O
  O59      1.0000 0.41889  0.16221  0.79228  Biso   1.000  O
  O60      1.0000 0.51847  0.61738  0.80288  Biso   1.000  O
  Ir20     1.0000 0.73452  0.83958  0.80946  Biso   1.000  Ir
  O61      1.0000 0.95058  0.06177  0.81605  Biso   1.000  O
  O62      1.0000 0.05013  0.51694  0.82666  Biso   1.000  O
  O63      1.0000 0.49541  0.97210  0.83727  Biso   1.000  O
  Ir21     1.0000 0.05716  0.19430  0.84385  Biso   1.000  Ir
  O64      1.0000 0.61892  0.41649  0.85044  Biso   1.000  O
  O65      1.0000 0.06417  0.87166  0.86104  Biso   1.000  O
  O66      1.0000 0.16375  0.32683  0.87166  Biso   1.000  O
