data_image0
_cell_length_a       7.0938
_cell_length_b       7.0938
_cell_length_c       27.8371
_cell_angle_alpha    90
_cell_angle_beta     90
_cell_angle_gamma    92.9993

_symmetry_space_group_name_H-M    "P 1"
_symmetry_int_tables_number       1

loop_
  _symmetry_equiv_pos_as_xyz
  'x, y, z'

loop_
  _atom_site_label
  _atom_site_occupancy
  _atom_site_fract_x
  _atom_site_fract_y
  _atom_site_fract_z
  _atom_site_thermal_displace_type
  _atom_site_B_iso_or_equiv
  _atom_site_type_symbol
  Ir1      1.0000 0.49270  0.37698  0.28904  Biso   1.000  Ir
  Ir2      1.0000 0.99271  0.87698  0.28904  Biso   1.000  Ir
  Ir3      1.0000 0.01758  0.35212  0.41612  Biso   1.000  Ir
  Ir4      1.0000 0.51758  0.85212  0.41612  Biso   1.000  Ir
  Ir5      1.0000 0.03991  0.82717  0.54345  Biso   1.000  Ir
  Ir6      1.0000 0.53977  0.32858  0.54316  Biso   1.000  Ir
  Ir7      1.0000 0.06530  0.29501  0.67383  Biso   1.000  Ir
  Ir8      1.0000 0.56487  0.79860  0.67359  Biso   1.000  Ir
  Ir9      1.0000 0.49271  0.87698  0.28904  Biso   1.000  Ir
  Ir10     1.0000 0.99270  0.37698  0.28904  Biso   1.000  Ir
  Ir11     1.0000 0.01758  0.85212  0.41612  Biso   1.000  Ir
  Ir12     1.0000 0.51758  0.35212  0.41612  Biso   1.000  Ir
  Ir13     1.0000 0.04050  0.32764  0.54357  Biso   1.000  Ir
  Ir14     1.0000 0.54102  0.82897  0.54351  Biso   1.000  Ir
  Ir15     1.0000 0.07107  0.80039  0.67358  Biso   1.000  Ir
  Ir16     1.0000 0.56452  0.30090  0.66962  Biso   1.000  Ir
  O1       1.0000 0.42799  0.28739  0.35258  Biso   1.000  O
  O2       1.0000 0.92798  0.78739  0.35258  Biso   1.000  O
  O3       1.0000 0.45284  0.76253  0.47966  Biso   1.000  O
  O4       1.0000 0.95285  0.26253  0.47966  Biso   1.000  O
  O5       1.0000 0.47406  0.23787  0.60691  Biso   1.000  O
  O6       1.0000 0.98911  0.74957  0.60828  Biso   1.000  O
  O7       1.0000 0.01207  0.20062  0.73145  Biso   1.000  O
  O8       1.0000 0.50080  0.71103  0.73133  Biso   1.000  O
  O9       1.0000 0.23888  0.30367  0.26943  Biso   1.000  O
  O10      1.0000 0.73887  0.80367  0.26943  Biso   1.000  O
  O11      1.0000 0.26374  0.77881  0.39651  Biso   1.000  O
  O12      1.0000 0.76374  0.27881  0.39651  Biso   1.000  O
  O13      1.0000 0.28685  0.25188  0.52396  Biso   1.000  O
  O14      1.0000 0.78677  0.75117  0.52404  Biso   1.000  O
  O15      1.0000 0.31274  0.72050  0.65004  Biso   1.000  O
  O16      1.0000 0.80962  0.22349  0.65046  Biso   1.000  O
  O17      1.0000 0.24654  0.95030  0.30865  Biso   1.000  O
  O18      1.0000 0.74654  0.45030  0.30865  Biso   1.000  O
  O19      1.0000 0.27140  0.42544  0.43573  Biso   1.000  O
  O20      1.0000 0.77140  0.92544  0.43573  Biso   1.000  O
  O21      1.0000 0.29460  0.90491  0.56192  Biso   1.000  O
  O22      1.0000 0.79266  0.40425  0.56247  Biso   1.000  O
  O23      1.0000 0.32129  0.38346  0.69006  Biso   1.000  O
  O24      1.0000 0.82016  0.88114  0.68969  Biso   1.000  O
  O25      1.0000 0.08228  0.44169  0.35258  Biso   1.000  O
  O26      1.0000 0.58228  0.94169  0.35258  Biso   1.000  O
  O27      1.0000 0.10714  0.91683  0.47966  Biso   1.000  O
  O28      1.0000 0.60715  0.41683  0.47966  Biso   1.000  O
  O29      1.0000 0.11587  0.37742  0.60856  Biso   1.000  O
  O30      1.0000 0.61881  0.87936  0.60845  Biso   1.000  O
  O31      1.0000 0.16544  0.85684  0.73099  Biso   1.000  O
  O32      1.0000 0.65597  0.35641  0.73497  Biso   1.000  O
  O33      1.0000 0.06602  0.63082  0.26942  Biso   1.000  O
  O34      1.0000 0.56602  0.13082  0.26942  Biso   1.000  O
  O35      1.0000 0.09088  0.10596  0.39651  Biso   1.000  O
  O36      1.0000 0.59088  0.60596  0.39651  Biso   1.000  O
  O37      1.0000 0.11639  0.58122  0.52434  Biso   1.000  O
  O38      1.0000 0.61649  0.08145  0.52386  Biso   1.000  O
  O39      1.0000 0.14361  0.05403  0.65036  Biso   1.000  O
  O40      1.0000 0.64401  0.55339  0.65159  Biso   1.000  O
  O41      1.0000 0.41939  0.62314  0.30865  Biso   1.000  O
  O42      1.0000 0.91940  0.12314  0.30865  Biso   1.000  O
  O43      1.0000 0.44427  0.09828  0.43573  Biso   1.000  O
  O44      1.0000 0.94426  0.59828  0.43573  Biso   1.000  O
  O45      1.0000 0.46304  0.57331  0.56231  Biso   1.000  O
  O46      1.0000 0.96154  0.07268  0.56190  Biso   1.000  O
  O47      1.0000 0.48710  0.04915  0.68994  Biso   1.000  O
  O48      1.0000 0.98521  0.54563  0.68966  Biso   1.000  O
  O49      1.0000 0.54596  0.26213  0.77063  Biso   1.000  O
  H1       1.0000 0.62454  0.29180  0.79904  Biso   1.000  H
