data_image0
_cell_length_a       3.1894
_cell_length_b       6.42053
_cell_length_c       62.8699
_cell_angle_alpha    90
_cell_angle_beta     90
_cell_angle_gamma    90

loop_
  _atom_site_label
  _atom_site_occupancy
  _atom_site_fract_x
  _atom_site_fract_y
  _atom_site_fract_z
  _atom_site_thermal_displace_type
  _atom_site_B_iso_or_equiv
  _atom_site_type_symbol
  Ir1      1.0000 0.00000  1.00000  0.12725  Biso   1.000  Ir
  O1       1.0000 0.50000  0.20000  0.12725  Biso   1.000  O
  Ir2      1.0000 0.50000  0.50000  0.12725  Biso   1.000  Ir
  O2       1.0000 0.50000  0.80000  0.12725  Biso   1.000  O
  O3       1.0000 0.00000  0.50000  0.14767  Biso   1.000  O
  O4       1.0000 0.00000  1.00000  0.15788  Biso   1.000  O
  Ir3      1.0000 0.50000  1.00000  0.17831  Biso   1.000  Ir
  O5       1.0000 0.50000  0.30000  0.17831  Biso   1.000  O
  Ir4      1.0000 0.00000  0.50000  0.17831  Biso   1.000  Ir
  O6       1.0000 0.50000  0.70000  0.17831  Biso   1.000  O
  O7       1.0000 0.00000  1.00000  0.19873  Biso   1.000  O
  O8       1.0000 0.00000  0.50000  0.20895  Biso   1.000  O
  Ir5      1.0000 0.00000  1.00000  0.22937  Biso   1.000  Ir
  O9       1.0000 0.50000  0.20000  0.22937  Biso   1.000  O
  Ir6      1.0000 0.50000  0.50000  0.22937  Biso   1.000  Ir
  O10      1.0000 0.50000  0.80000  0.22937  Biso   1.000  O
  O11      1.0000 0.00000  0.50000  0.24980  Biso   1.000  O
  O12      1.0000 0.00000  1.00000  0.26001  Biso   1.000  O
  Ir7      1.0000 0.50000  1.00000  0.28043  Biso   1.000  Ir
  O13      1.0000 0.50000  0.30000  0.28043  Biso   1.000  O
  Ir8      1.0000 0.00000  0.50000  0.28043  Biso   1.000  Ir
  O14      1.0000 0.50000  0.70000  0.28043  Biso   1.000  O
  O15      1.0000 0.00000  1.00000  0.30086  Biso   1.000  O
  O16      1.0000 0.00000  0.50000  0.31107  Biso   1.000  O
  Ir9      1.0000 0.00000  1.00000  0.33150  Biso   1.000  Ir
  O17      1.0000 0.50000  0.20000  0.33150  Biso   1.000  O
  Ir10     1.0000 0.50000  0.50000  0.33150  Biso   1.000  Ir
  O18      1.0000 0.50000  0.80000  0.33150  Biso   1.000  O
  O19      1.0000 0.00000  0.50000  0.35192  Biso   1.000  O
  O20      1.0000 0.00000  0.00000  0.36213  Biso   1.000  O
  Ir11     1.0000 0.50000  1.00000  0.38256  Biso   1.000  Ir
  O21      1.0000 0.50000  0.30000  0.38256  Biso   1.000  O
  Ir12     1.0000 0.00000  0.50000  0.38256  Biso   1.000  Ir
  O22      1.0000 0.50000  0.70000  0.38256  Biso   1.000  O
  O23      1.0000 0.00000  1.00000  0.40298  Biso   1.000  O
  O24      1.0000 0.00000  0.50000  0.41319  Biso   1.000  O
  Ir13     1.0000 0.00000  0.00000  0.43362  Biso   1.000  Ir
  O25      1.0000 0.50000  0.20000  0.43362  Biso   1.000  O
  Ir14     1.0000 0.50000  0.50000  0.43362  Biso   1.000  Ir
  O26      1.0000 0.50000  0.80000  0.43362  Biso   1.000  O
  O27      1.0000 0.00000  0.50000  0.45404  Biso   1.000  O
  O28      1.0000 0.00000  1.00000  0.46426  Biso   1.000  O
  Ir15     1.0000 0.50000  1.00000  0.48468  Biso   1.000  Ir
  O29      1.0000 0.50000  0.30000  0.48468  Biso   1.000  O
  Ir16     1.0000 0.00000  0.50000  0.48468  Biso   1.000  Ir
  O30      1.0000 0.50000  0.70000  0.48468  Biso   1.000  O
  O31      1.0000 0.00000  1.00000  0.50511  Biso   1.000  O
  O32      1.0000 0.00000  0.50000  0.51532  Biso   1.000  O
  Ir17     1.0000 0.00000  1.00000  0.53574  Biso   1.000  Ir
  O33      1.0000 0.50000  0.20000  0.53574  Biso   1.000  O
  Ir18     1.0000 0.50000  0.50000  0.53574  Biso   1.000  Ir
  O34      1.0000 0.50000  0.80000  0.53574  Biso   1.000  O
  O35      1.0000 0.00000  0.50000  0.55617  Biso   1.000  O
  O36      1.0000 0.00000  1.00000  0.56638  Biso   1.000  O
  Ir19     1.0000 0.50000  1.00000  0.58681  Biso   1.000  Ir
  O37      1.0000 0.50000  0.30000  0.58681  Biso   1.000  O
  Ir20     1.0000 0.00000  0.50000  0.58681  Biso   1.000  Ir
  O38      1.0000 0.50000  0.70000  0.58681  Biso   1.000  O
  O39      1.0000 0.00000  1.00000  0.60723  Biso   1.000  O
  O40      1.0000 0.00000  0.50000  0.61744  Biso   1.000  O
  Ir21     1.0000 0.00000  1.00000  0.63787  Biso   1.000  Ir
  O41      1.0000 0.50000  0.20000  0.63787  Biso   1.000  O
  Ir22     1.0000 0.50000  0.50000  0.63787  Biso   1.000  Ir
  O42      1.0000 0.50000  0.80000  0.63787  Biso   1.000  O
  O43      1.0000 0.00000  0.50000  0.65829  Biso   1.000  O
  O44      1.0000 0.00000  1.00000  0.66850  Biso   1.000  O
  Ir23     1.0000 0.50000  1.00000  0.68893  Biso   1.000  Ir
  O45      1.0000 0.50000  0.30000  0.68893  Biso   1.000  O
  Ir24     1.0000 0.00000  0.50000  0.68893  Biso   1.000  Ir
  O46      1.0000 0.50000  0.70000  0.68893  Biso   1.000  O
  O47      1.0000 0.00000  1.00000  0.70935  Biso   1.000  O
  O48      1.0000 0.00000  0.50000  0.71957  Biso   1.000  O
  Ir25     1.0000 0.00000  0.00000  0.73999  Biso   1.000  Ir
  O49      1.0000 0.50000  0.20000  0.73999  Biso   1.000  O
  Ir26     1.0000 0.50000  0.50000  0.73999  Biso   1.000  Ir
  O50      1.0000 0.50000  0.80000  0.73999  Biso   1.000  O
  O51      1.0000 0.00000  0.50000  0.76042  Biso   1.000  O
  O52      1.0000 0.00000  0.00000  0.77063  Biso   1.000  O
  Ir27     1.0000 0.50000  0.00000  0.79105  Biso   1.000  Ir
  O53      1.0000 0.50000  0.30000  0.79105  Biso   1.000  O
  Ir28     1.0000 0.00000  0.50000  0.79105  Biso   1.000  Ir
  O54      1.0000 0.50000  0.70000  0.79105  Biso   1.000  O
  O55      1.0000 0.00000  0.00000  0.81148  Biso   1.000  O
  O56      1.0000 0.00000  0.50000  0.82169  Biso   1.000  O
  Ir29     1.0000 0.00000  0.00000  0.84212  Biso   1.000  Ir
  O57      1.0000 0.50000  0.20000  0.84212  Biso   1.000  O
  Ir30     1.0000 0.50000  0.50000  0.84212  Biso   1.000  Ir
  O58      1.0000 0.50000  0.80000  0.84212  Biso   1.000  O
  O59      1.0000 0.00000  0.50000  0.86254  Biso   1.000  O
  O60      1.0000 0.00000  0.00000  0.87275  Biso   1.000  O
