data_image0
_cell_length_a       5.9119
_cell_length_b       17.836
_cell_length_c       33.7844
_cell_angle_alpha    90
_cell_angle_beta     90
_cell_angle_gamma    90

_symmetry_space_group_name_H-M    "P 1"
_symmetry_int_tables_number       1

loop_
  _symmetry_equiv_pos_as_xyz
  'x, y, z'

loop_
  _atom_site_label
  _atom_site_occupancy
  _atom_site_fract_x
  _atom_site_fract_y
  _atom_site_fract_z
  _atom_site_thermal_displace_type
  _atom_site_B_iso_or_equiv
  _atom_site_type_symbol
  Ir1      1.0000 0.75000  0.91647  0.43750  Biso   1.000  Ir
  Ir2      1.0000 0.75000  0.08353  0.43750  Biso   1.000  Ir
  Ir3      1.0000 0.25000  0.58353  0.43750  Biso   1.000  Ir
  Ir4      1.0000 0.25000  0.41647  0.43750  Biso   1.000  Ir
  Ir5      1.0000 0.50000  0.16659  0.37500  Biso   1.000  Ir
  Ir6      1.0000 0.50000  0.83341  0.37500  Biso   1.000  Ir
  Ir7      1.0000 0.50000  0.33341  0.37500  Biso   1.000  Ir
  Ir8      1.0000 0.50000  0.66659  0.37500  Biso   1.000  Ir
  Ir9      1.0000 0.28744  0.09489  0.56595  Biso   1.000  Ir
  Ir10     1.0000 0.27764  0.91830  0.57238  Biso   1.000  Ir
  Ir11     1.0000 0.71992  0.42013  0.57084  Biso   1.000  Ir
  Ir12     1.0000 0.71065  0.59493  0.56711  Biso   1.000  Ir
  Ir13     1.0000 0.02182  0.16825  0.49832  Biso   1.000  Ir
  Ir14     1.0000 0.02344  0.83863  0.50192  Biso   1.000  Ir
  Ir15     1.0000 0.97679  0.33828  0.50137  Biso   1.000  Ir
  Ir16     1.0000 0.97669  0.66827  0.49835  Biso   1.000  Ir
  O1       1.0000 0.71600  0.08500  0.37950  Biso   1.000  O
  O2       1.0000 0.28400  0.91500  0.37050  Biso   1.000  O
  O3       1.0000 0.28400  0.08500  0.37050  Biso   1.000  O
  O4       1.0000 0.71600  0.91500  0.37950  Biso   1.000  O
  O5       1.0000 0.28400  0.41500  0.37950  Biso   1.000  O
  O6       1.0000 0.71600  0.58500  0.37050  Biso   1.000  O
  O7       1.0000 0.71600  0.41500  0.37050  Biso   1.000  O
  O8       1.0000 0.28400  0.58500  0.37950  Biso   1.000  O
  O9       1.0000 0.79703  0.91012  0.49433  Biso   1.000  O
  O10      1.0000 0.79023  0.09505  0.49376  Biso   1.000  O
  O11      1.0000 0.20816  0.59515  0.49408  Biso   1.000  O
  O12      1.0000 0.20469  0.40948  0.49449  Biso   1.000  O
  O13      1.0000 0.71900  0.25000  0.37500  Biso   1.000  O
  O14      1.0000 0.28100  0.75000  0.37500  Biso   1.000  O
  O15      1.0000 0.28100  0.25000  0.37500  Biso   1.000  O
  O16      1.0000 0.71900  0.75000  0.37500  Biso   1.000  O
  O17      1.0000 0.98200  0.00000  0.43225  Biso   1.000  O
  O18      1.0000 0.01800  0.50000  0.43225  Biso   1.000  O
  O19      1.0000 0.51800  0.00000  0.44275  Biso   1.000  O
  O20      1.0000 0.48200  0.50000  0.44275  Biso   1.000  O
  O21      1.0000 0.53000  0.83800  0.43550  Biso   1.000  O
  O22      1.0000 0.53000  0.16200  0.43550  Biso   1.000  O
  O23      1.0000 0.47000  0.66200  0.43550  Biso   1.000  O
  O24      1.0000 0.47000  0.33800  0.43550  Biso   1.000  O
  O25      1.0000 0.97000  0.16200  0.43950  Biso   1.000  O
  O26      1.0000 0.97000  0.83800  0.43950  Biso   1.000  O
  O27      1.0000 0.03000  0.33800  0.43950  Biso   1.000  O
  O28      1.0000 0.03000  0.66200  0.43950  Biso   1.000  O
  O29      1.0000 0.18102  0.90409  0.62051  Biso   1.000  O
  O30      1.0000 0.19151  0.09908  0.62055  Biso   1.000  O
  O31      1.0000 0.81158  0.58936  0.61672  Biso   1.000  O
  O32      1.0000 0.81366  0.40900  0.61924  Biso   1.000  O
  O33      1.0000 0.27237  0.10095  0.50767  Biso   1.000  O
  O34      1.0000 0.27253  0.90143  0.51003  Biso   1.000  O
  O35      1.0000 0.72545  0.39939  0.50818  Biso   1.000  O
  O36      1.0000 0.72333  0.60505  0.50780  Biso   1.000  O
  O37      1.0000 0.20749  0.25559  0.49847  Biso   1.000  O
  O38      1.0000 0.79265  0.75626  0.49788  Biso   1.000  O
  O39      1.0000 0.80170  0.24955  0.49925  Biso   1.000  O
  O40      1.0000 0.19858  0.75058  0.49904  Biso   1.000  O
  O41      1.0000 0.09155  0.00327  0.55924  Biso   1.000  O
  O42      1.0000 0.90328  0.50270  0.55478  Biso   1.000  O
  O43      1.0000 0.48398  0.99957  0.57288  Biso   1.000  O
  O44      1.0000 0.51032  0.50170  0.57031  Biso   1.000  O
  O45      1.0000 0.53999  0.14379  0.57053  Biso   1.000  O
  O46      1.0000 0.51209  0.85599  0.56809  Biso   1.000  O
  O47      1.0000 0.48505  0.35768  0.56703  Biso   1.000  O
  O48      1.0000 0.45930  0.64548  0.57044  Biso   1.000  O
  O49      1.0000 0.01828  0.84873  0.55745  Biso   1.000  O
  O50      1.0000 0.03662  0.15807  0.55696  Biso   1.000  O
  O51      1.0000 0.96516  0.65823  0.55641  Biso   1.000  O
  O52      1.0000 0.97747  0.35005  0.55696  Biso   1.000  O
  O53      1.0000 0.27948  0.04432  0.64715  Biso   1.000  O
  H1       1.0000 0.14542  0.03488  0.66366  Biso   1.000  H
