data_image0
_cell_length_a       6.3788
_cell_length_b       6.42053
_cell_length_c       40.398
_cell_angle_alpha    90
_cell_angle_beta     90
_cell_angle_gamma    90

_symmetry_space_group_name_H-M    "P 1"
_symmetry_int_tables_number       1

loop_
  _symmetry_equiv_pos_as_xyz
  'x, y, z'

loop_
  _atom_site_label
  _atom_site_occupancy
  _atom_site_fract_x
  _atom_site_fract_y
  _atom_site_fract_z
  _atom_site_thermal_displace_type
  _atom_site_B_iso_or_equiv
  _atom_site_type_symbol
  O1       1.0000 0.00000  0.00000  0.22982  Biso   1.000  O
  O2       1.0000 0.00000  0.50000  0.24571  Biso   1.000  O
  Ir1      1.0000 0.00000  0.00000  0.27750  Biso   1.000  Ir
  O3       1.0000 0.25000  0.20000  0.27750  Biso   1.000  O
  Ir2      1.0000 0.25000  0.50000  0.27750  Biso   1.000  Ir
  O4       1.0000 0.25000  0.80000  0.27750  Biso   1.000  O
  O5       1.0000 0.00000  0.50000  0.30928  Biso   1.000  O
  O6       1.0000 0.00000  0.00000  0.32517  Biso   1.000  O
  Ir3      1.0000 0.25000  0.00000  0.35696  Biso   1.000  Ir
  O7       1.0000 0.25000  0.30000  0.35696  Biso   1.000  O
  Ir4      1.0000 0.00000  0.50000  0.35696  Biso   1.000  Ir
  O8       1.0000 0.25000  0.70000  0.35696  Biso   1.000  O
  O9       1.0000 0.00000  0.00000  0.38875  Biso   1.000  O
  O10      1.0000 0.00000  0.50000  0.40464  Biso   1.000  O
  Ir5      1.0000 0.00000  0.00000  0.43643  Biso   1.000  Ir
  O11      1.0000 0.25000  0.20000  0.43643  Biso   1.000  O
  Ir6      1.0000 0.25000  0.50000  0.43643  Biso   1.000  Ir
  O12      1.0000 0.25000  0.80000  0.43643  Biso   1.000  O
  O13      1.0000 0.00000  0.50000  0.46821  Biso   1.000  O
  O14      1.0000 0.00000  0.00000  0.48411  Biso   1.000  O
  Ir7      1.0000 0.25000  0.00000  0.51589  Biso   1.000  Ir
  O15      1.0000 0.25000  0.30000  0.51589  Biso   1.000  O
  Ir8      1.0000 0.00000  0.50000  0.51589  Biso   1.000  Ir
  O16      1.0000 0.25000  0.70000  0.51589  Biso   1.000  O
  O17      1.0000 0.00000  0.00000  0.54768  Biso   1.000  O
  O18      1.0000 0.00000  0.50000  0.56357  Biso   1.000  O
  O19      1.0000 0.50000  0.00000  0.22982  Biso   1.000  O
  O20      1.0000 0.50000  0.50000  0.24571  Biso   1.000  O
  Ir9      1.0000 0.50000  0.00000  0.27750  Biso   1.000  Ir
  O21      1.0000 0.75000  0.20000  0.27750  Biso   1.000  O
  Ir10     1.0000 0.75000  0.50000  0.27750  Biso   1.000  Ir
  O22      1.0000 0.75000  0.80000  0.27750  Biso   1.000  O
  O23      1.0000 0.50000  0.50000  0.30928  Biso   1.000  O
  O24      1.0000 0.50000  0.00000  0.32517  Biso   1.000  O
  Ir11     1.0000 0.75000  0.00000  0.35696  Biso   1.000  Ir
  O25      1.0000 0.75000  0.30000  0.35696  Biso   1.000  O
  Ir12     1.0000 0.50000  0.50000  0.35696  Biso   1.000  Ir
  O26      1.0000 0.75000  0.70000  0.35696  Biso   1.000  O
  O27      1.0000 0.50000  0.00000  0.38875  Biso   1.000  O
  O28      1.0000 0.50000  0.50000  0.40464  Biso   1.000  O
  Ir13     1.0000 0.50000  0.00000  0.43643  Biso   1.000  Ir
  O29      1.0000 0.75000  0.20000  0.43643  Biso   1.000  O
  Ir14     1.0000 0.75000  0.50000  0.43643  Biso   1.000  Ir
  O30      1.0000 0.75000  0.80000  0.43643  Biso   1.000  O
  O31      1.0000 0.50000  0.50000  0.46821  Biso   1.000  O
  O32      1.0000 0.50000  0.00000  0.48411  Biso   1.000  O
  Ir15     1.0000 0.75000  0.00000  0.51589  Biso   1.000  Ir
  O33      1.0000 0.75000  0.30000  0.51589  Biso   1.000  O
  Ir16     1.0000 0.50000  0.50000  0.51589  Biso   1.000  Ir
  O34      1.0000 0.75000  0.70000  0.51589  Biso   1.000  O
  O35      1.0000 0.50000  0.00000  0.54768  Biso   1.000  O
  O36      1.0000 0.50000  0.50000  0.56357  Biso   1.000  O
