data_image0
_cell_length_a       7.0938
_cell_length_b       7.0938
_cell_length_c       24.1505
_cell_angle_alpha    90
_cell_angle_beta     90
_cell_angle_gamma    92.9993

_symmetry_space_group_name_H-M    "P 1"
_symmetry_int_tables_number       1

loop_
  _symmetry_equiv_pos_as_xyz
  'x, y, z'

loop_
  _atom_site_label
  _atom_site_occupancy
  _atom_site_fract_x
  _atom_site_fract_y
  _atom_site_fract_z
  _atom_site_thermal_displace_type
  _atom_site_B_iso_or_equiv
  _atom_site_type_symbol
  Ir1      1.0000 0.49127  0.32803  0.28028  Biso   1.000  Ir
  Ir2      1.0000 0.99127  0.82803  0.28028  Biso   1.000  Ir
  Ir3      1.0000 0.01614  0.30317  0.42676  Biso   1.000  Ir
  Ir4      1.0000 0.51614  0.80317  0.42676  Biso   1.000  Ir
  Ir5      1.0000 0.04100  0.77831  0.57324  Biso   1.000  Ir
  Ir6      1.0000 0.54100  0.27831  0.57324  Biso   1.000  Ir
  Ir7      1.0000 0.06586  0.25345  0.71972  Biso   1.000  Ir
  Ir8      1.0000 0.56586  0.75345  0.71972  Biso   1.000  Ir
  Ir9      1.0000 0.49127  0.82803  0.28028  Biso   1.000  Ir
  Ir10     1.0000 0.99127  0.32803  0.28028  Biso   1.000  Ir
  Ir11     1.0000 0.01614  0.80317  0.42676  Biso   1.000  Ir
  Ir12     1.0000 0.51614  0.30317  0.42676  Biso   1.000  Ir
  Ir13     1.0000 0.04100  0.27831  0.57324  Biso   1.000  Ir
  Ir14     1.0000 0.54100  0.77831  0.57324  Biso   1.000  Ir
  Ir15     1.0000 0.06586  0.75345  0.71972  Biso   1.000  Ir
  Ir16     1.0000 0.56586  0.25345  0.71972  Biso   1.000  Ir
  O1       1.0000 0.40169  0.76331  0.20703  Biso   1.000  O
  O2       1.0000 0.90169  0.26331  0.20703  Biso   1.000  O
  O3       1.0000 0.42655  0.23844  0.35352  Biso   1.000  O
  O4       1.0000 0.92655  0.73844  0.35352  Biso   1.000  O
  O5       1.0000 0.45141  0.71358  0.50000  Biso   1.000  O
  O6       1.0000 0.95141  0.21358  0.50000  Biso   1.000  O
  O7       1.0000 0.47627  0.18872  0.64648  Biso   1.000  O
  O8       1.0000 0.97627  0.68872  0.64648  Biso   1.000  O
  O9       1.0000 0.00113  0.16386  0.79297  Biso   1.000  O
  O10      1.0000 0.50113  0.66386  0.79297  Biso   1.000  O
  O11      1.0000 0.23744  0.25472  0.25768  Biso   1.000  O
  O12      1.0000 0.73744  0.75472  0.25768  Biso   1.000  O
  O13      1.0000 0.26230  0.72986  0.40416  Biso   1.000  O
  O14      1.0000 0.76230  0.22986  0.40416  Biso   1.000  O
  O15      1.0000 0.28716  0.20500  0.55064  Biso   1.000  O
  O16      1.0000 0.78716  0.70500  0.55064  Biso   1.000  O
  O17      1.0000 0.31202  0.68014  0.69712  Biso   1.000  O
  O18      1.0000 0.81202  0.18014  0.69712  Biso   1.000  O
  O19      1.0000 0.24511  0.90135  0.30288  Biso   1.000  O
  O20      1.0000 0.74511  0.40135  0.30288  Biso   1.000  O
  O21      1.0000 0.26997  0.37649  0.44936  Biso   1.000  O
  O22      1.0000 0.76997  0.87649  0.44936  Biso   1.000  O
  O23      1.0000 0.29483  0.85163  0.59585  Biso   1.000  O
  O24      1.0000 0.79483  0.35163  0.59585  Biso   1.000  O
  O25      1.0000 0.31969  0.32676  0.74233  Biso   1.000  O
  O26      1.0000 0.81969  0.82676  0.74233  Biso   1.000  O
  O27      1.0000 0.05599  0.91761  0.20703  Biso   1.000  O
  O28      1.0000 0.55599  0.41761  0.20703  Biso   1.000  O
  O29      1.0000 0.08085  0.39274  0.35352  Biso   1.000  O
  O30      1.0000 0.58085  0.89274  0.35352  Biso   1.000  O
  O31      1.0000 0.10571  0.86788  0.50000  Biso   1.000  O
  O32      1.0000 0.60571  0.36788  0.50000  Biso   1.000  O
  O33      1.0000 0.13057  0.34302  0.64648  Biso   1.000  O
  O34      1.0000 0.63057  0.84302  0.64648  Biso   1.000  O
  O35      1.0000 0.15543  0.81816  0.79297  Biso   1.000  O
  O36      1.0000 0.65543  0.31816  0.79297  Biso   1.000  O
  O37      1.0000 0.06459  0.58187  0.25767  Biso   1.000  O
  O38      1.0000 0.56459  0.08187  0.25767  Biso   1.000  O
  O39      1.0000 0.08945  0.05701  0.40415  Biso   1.000  O
  O40      1.0000 0.58945  0.55701  0.40415  Biso   1.000  O
  O41      1.0000 0.11432  0.53214  0.55064  Biso   1.000  O
  O42      1.0000 0.61432  0.03214  0.55064  Biso   1.000  O
  O43      1.0000 0.13918  0.00728  0.69712  Biso   1.000  O
  O44      1.0000 0.63918  0.50728  0.69712  Biso   1.000  O
  O45      1.0000 0.41796  0.57419  0.30288  Biso   1.000  O
  O46      1.0000 0.91796  0.07419  0.30288  Biso   1.000  O
  O47      1.0000 0.44283  0.04933  0.44936  Biso   1.000  O
  O48      1.0000 0.94283  0.54933  0.44936  Biso   1.000  O
  O49      1.0000 0.46769  0.52447  0.59584  Biso   1.000  O
  O50      1.0000 0.96769  0.02447  0.59584  Biso   1.000  O
  O51      1.0000 0.49255  0.99961  0.74232  Biso   1.000  O
  O52      1.0000 0.99255  0.49961  0.74232  Biso   1.000  O
  H1       1.0000 0.65543  0.31816  0.83438  Biso   1.000  H
  H2       1.0000 0.55599  0.41761  0.16562  Biso   1.000  H
  H3       1.0000 0.15543  0.81816  0.83438  Biso   1.000  H
  H4       1.0000 0.05599  0.91761  0.16562  Biso   1.000  H
  H5       1.0000 0.50113  0.66386  0.83438  Biso   1.000  H
  H6       1.0000 0.40169  0.76331  0.16562  Biso   1.000  H
  H7       1.0000 0.00113  0.16386  0.83438  Biso   1.000  H
  H8       1.0000 0.90169  0.26331  0.16562  Biso   1.000  H
