data_image0
_cell_length_a       6.64164
_cell_length_b       8.72335
_cell_length_c       28.2831
_cell_angle_alpha    90
_cell_angle_beta     90
_cell_angle_gamma    90

_symmetry_space_group_name_H-M    "P 1"
_symmetry_int_tables_number       1

loop_
  _symmetry_equiv_pos_as_xyz
  'x, y, z'

loop_
  _atom_site_label
  _atom_site_occupancy
  _atom_site_fract_x
  _atom_site_fract_y
  _atom_site_fract_z
  _atom_site_thermal_displace_type
  _atom_site_B_iso_or_equiv
  _atom_site_type_symbol
  O1       1.0000 0.50000  0.32474  0.26518  Biso   1.000  O
  O2       1.0000 0.50000  0.67526  0.26518  Biso   1.000  O
  O3       1.0000 0.50000  0.00000  0.27269  Biso   1.000  O
  O4       1.0000 0.21239  0.17526  0.31505  Biso   1.000  O
  O5       1.0000 0.78761  0.17526  0.31505  Biso   1.000  O
  O6       1.0000 0.18035  0.50000  0.31505  Biso   1.000  O
  O7       1.0000 0.81965  0.50000  0.31505  Biso   1.000  O
  O8       1.0000 0.21239  0.82474  0.31505  Biso   1.000  O
  O9       1.0000 0.78761  0.82474  0.31505  Biso   1.000  O
  O10      1.0000 0.50000  0.00000  0.35740  Biso   1.000  O
  O11      1.0000 0.50000  0.32474  0.36493  Biso   1.000  O
  O12      1.0000 0.50000  0.67526  0.36493  Biso   1.000  O
  O13      1.0000 0.00000  0.32474  0.38258  Biso   1.000  O
  O14      1.0000 0.00000  0.67526  0.38258  Biso   1.000  O
  O15      1.0000 0.00000  0.00000  0.39012  Biso   1.000  O
  O16      1.0000 0.28761  0.17526  0.43246  Biso   1.000  O
  O17      1.0000 0.71239  0.17526  0.43246  Biso   1.000  O
  O18      1.0000 0.28761  0.82474  0.43246  Biso   1.000  O
  O19      1.0000 0.31965  0.50000  0.43246  Biso   1.000  O
  O20      1.0000 0.68035  0.50000  0.43246  Biso   1.000  O
  O21      1.0000 0.71239  0.82474  0.43246  Biso   1.000  O
  O22      1.0000 0.00000  0.00000  0.47481  Biso   1.000  O
  O23      1.0000 0.00000  0.32474  0.48234  Biso   1.000  O
  O24      1.0000 0.00000  0.67526  0.48234  Biso   1.000  O
  O25      1.0000 0.50000  0.32474  0.49999  Biso   1.000  O
  O26      1.0000 0.50000  0.67526  0.49999  Biso   1.000  O
  O27      1.0000 0.50000  0.00000  0.50753  Biso   1.000  O
  O28      1.0000 0.21269  0.17514  0.54998  Biso   1.000  O
  O29      1.0000 0.78696  0.17564  0.55032  Biso   1.000  O
  O30      1.0000 0.18043  0.50048  0.55058  Biso   1.000  O
  O31      1.0000 0.82008  0.50058  0.55085  Biso   1.000  O
  O32      1.0000 0.78704  0.82542  0.55015  Biso   1.000  O
  O33      1.0000 0.21233  0.82635  0.54935  Biso   1.000  O
  O34      1.0000 0.49925  0.00099  0.59205  Biso   1.000  O
  O35      1.0000 0.49822  0.33081  0.59821  Biso   1.000  O
  O36      1.0000 0.49706  0.68470  0.60193  Biso   1.000  O
  O37      1.0000 0.00286  0.32062  0.61824  Biso   1.000  O
  O38      1.0000 0.00358  0.68339  0.61762  Biso   1.000  O
  O39      1.0000 0.00300  0.00262  0.62738  Biso   1.000  O
  O40      1.0000 0.29159  0.17614  0.66843  Biso   1.000  O
  O41      1.0000 0.71024  0.17510  0.66653  Biso   1.000  O
  O42      1.0000 0.32095  0.50419  0.66788  Biso   1.000  O
  O43      1.0000 0.68214  0.50438  0.66642  Biso   1.000  O
  O44      1.0000 0.29139  0.83181  0.66787  Biso   1.000  O
  O45      1.0000 0.70925  0.83294  0.66560  Biso   1.000  O
  O46      1.0000 0.99935  0.00118  0.71151  Biso   1.000  O
  O47      1.0000 0.99671  0.30057  0.72071  Biso   1.000  O
  O48      1.0000 0.99389  0.70103  0.71845  Biso   1.000  O
  O49      1.0000 0.50758  0.33323  0.73440  Biso   1.000  O
  O50      1.0000 0.50753  0.68825  0.73418  Biso   1.000  O
  O51      1.0000 0.50607  0.18415  0.75348  Biso   1.000  O
  Ir1      1.0000 0.50000  0.17534  0.31505  Biso   1.000  Ir
  Ir2      1.0000 0.00000  0.32465  0.31505  Biso   1.000  Ir
  Ir3      1.0000 0.00000  0.67534  0.31505  Biso   1.000  Ir
  Ir4      1.0000 0.50000  0.82466  0.31505  Biso   1.000  Ir
  Ir5      1.0000 0.00000  0.17534  0.43246  Biso   1.000  Ir
  Ir6      1.0000 0.50000  0.32465  0.43246  Biso   1.000  Ir
  Ir7      1.0000 0.50000  0.67534  0.43246  Biso   1.000  Ir
  Ir8      1.0000 0.00000  0.82466  0.43246  Biso   1.000  Ir
  Ir9      1.0000 0.49981  0.17491  0.54948  Biso   1.000  Ir
  Ir10     1.0000 0.00016  0.32503  0.54975  Biso   1.000  Ir
  Ir11     1.0000 0.00023  0.67644  0.54955  Biso   1.000  Ir
  Ir12     1.0000 0.49962  0.82409  0.55032  Biso   1.000  Ir
  Ir13     1.0000 0.00095  0.18130  0.66977  Biso   1.000  Ir
  Ir14     1.0000 0.50138  0.32591  0.66519  Biso   1.000  Ir
  Ir15     1.0000 0.50142  0.67736  0.67210  Biso   1.000  Ir
  Ir16     1.0000 0.00045  0.82417  0.66839  Biso   1.000  Ir
  H1       1.0000 0.51700  0.20822  0.78739  Biso   1.000  H
