data_image0
_cell_length_a       5.9119
_cell_length_b       17.836
_cell_length_c       59.1227
_cell_angle_alpha    90
_cell_angle_beta     90
_cell_angle_gamma    90

_symmetry_space_group_name_H-M    "P 1"
_symmetry_int_tables_number       1

loop_
  _symmetry_equiv_pos_as_xyz
  'x, y, z'

loop_
  _atom_site_label
  _atom_site_occupancy
  _atom_site_fract_x
  _atom_site_fract_y
  _atom_site_fract_z
  _atom_site_thermal_displace_type
  _atom_site_B_iso_or_equiv
  _atom_site_type_symbol
  Ir1      1.0000 0.75000  0.91647  0.39286  Biso   1.000  Ir
  Ir2      1.0000 0.75000  0.08353  0.39286  Biso   1.000  Ir
  Ir3      1.0000 0.25000  0.58353  0.39286  Biso   1.000  Ir
  Ir4      1.0000 0.25000  0.41647  0.39286  Biso   1.000  Ir
  O1       1.0000 0.71600  0.08500  0.35971  Biso   1.000  O
  O2       1.0000 0.71600  0.91500  0.35971  Biso   1.000  O
  O3       1.0000 0.28400  0.41500  0.35971  Biso   1.000  O
  O4       1.0000 0.28400  0.58500  0.35971  Biso   1.000  O
  O5       1.0000 0.78400  0.91500  0.42600  Biso   1.000  O
  O6       1.0000 0.78400  0.08500  0.42600  Biso   1.000  O
  O7       1.0000 0.21600  0.58500  0.42600  Biso   1.000  O
  O8       1.0000 0.21600  0.41500  0.42600  Biso   1.000  O
  O9       1.0000 0.98200  0.00000  0.38986  Biso   1.000  O
  O10      1.0000 0.01800  0.50000  0.38986  Biso   1.000  O
  O11      1.0000 0.51800  0.00000  0.39586  Biso   1.000  O
  O12      1.0000 0.48200  0.50000  0.39586  Biso   1.000  O
  O13      1.0000 0.53000  0.83800  0.39171  Biso   1.000  O
  O14      1.0000 0.53000  0.16200  0.39171  Biso   1.000  O
  O15      1.0000 0.47000  0.66200  0.39171  Biso   1.000  O
  O16      1.0000 0.47000  0.33800  0.39171  Biso   1.000  O
  O17      1.0000 0.97000  0.16200  0.39400  Biso   1.000  O
  O18      1.0000 0.97000  0.83800  0.39400  Biso   1.000  O
  O19      1.0000 0.03000  0.33800  0.39400  Biso   1.000  O
  O20      1.0000 0.03000  0.66200  0.39400  Biso   1.000  O
  Ir5      1.0000 0.25000  0.08353  0.46429  Biso   1.000  Ir
  Ir6      1.0000 0.75000  0.91647  0.53571  Biso   1.000  Ir
  Ir7      1.0000 0.75000  0.08353  0.53571  Biso   1.000  Ir
  Ir8      1.0000 0.25000  0.91647  0.46429  Biso   1.000  Ir
  Ir9      1.0000 0.75000  0.41647  0.46429  Biso   1.000  Ir
  Ir10     1.0000 0.25000  0.58353  0.53571  Biso   1.000  Ir
  Ir11     1.0000 0.25000  0.41647  0.53571  Biso   1.000  Ir
  Ir12     1.0000 0.75000  0.58353  0.46429  Biso   1.000  Ir
  Ir13     1.0000 0.50000  0.16659  0.50000  Biso   1.000  Ir
  Ir14     1.0000 0.50000  0.83341  0.50000  Biso   1.000  Ir
  Ir15     1.0000 0.50000  0.33341  0.50000  Biso   1.000  Ir
  Ir16     1.0000 0.50000  0.66659  0.50000  Biso   1.000  Ir
  Ir17     1.0000 0.00000  0.16659  0.42857  Biso   1.000  Ir
  Ir18     1.0000 0.00000  0.83341  0.42857  Biso   1.000  Ir
  Ir19     1.0000 0.00000  0.33341  0.42857  Biso   1.000  Ir
  Ir20     1.0000 0.00000  0.66659  0.42857  Biso   1.000  Ir
  O21      1.0000 0.71600  0.08500  0.50257  Biso   1.000  O
  O22      1.0000 0.28400  0.91500  0.49743  Biso   1.000  O
  O23      1.0000 0.28400  0.08500  0.49743  Biso   1.000  O
  O24      1.0000 0.71600  0.91500  0.50257  Biso   1.000  O
  O25      1.0000 0.28400  0.41500  0.50257  Biso   1.000  O
  O26      1.0000 0.71600  0.58500  0.49743  Biso   1.000  O
  O27      1.0000 0.71600  0.41500  0.49743  Biso   1.000  O
  O28      1.0000 0.28400  0.58500  0.50257  Biso   1.000  O
  O29      1.0000 0.21600  0.08500  0.43114  Biso   1.000  O
  O30      1.0000 0.78400  0.91500  0.56886  Biso   1.000  O
  O31      1.0000 0.78400  0.08500  0.56886  Biso   1.000  O
  O32      1.0000 0.21600  0.91500  0.43114  Biso   1.000  O
  O33      1.0000 0.78400  0.41500  0.43114  Biso   1.000  O
  O34      1.0000 0.21600  0.58500  0.56886  Biso   1.000  O
  O35      1.0000 0.21600  0.41500  0.56886  Biso   1.000  O
  O36      1.0000 0.78400  0.58500  0.43114  Biso   1.000  O
  O37      1.0000 0.71900  0.25000  0.50000  Biso   1.000  O
  O38      1.0000 0.28100  0.75000  0.50000  Biso   1.000  O
  O39      1.0000 0.28100  0.25000  0.50000  Biso   1.000  O
  O40      1.0000 0.71900  0.75000  0.50000  Biso   1.000  O
  O41      1.0000 0.21900  0.25000  0.42857  Biso   1.000  O
  O42      1.0000 0.78100  0.75000  0.42857  Biso   1.000  O
  O43      1.0000 0.78100  0.25000  0.42857  Biso   1.000  O
  O44      1.0000 0.21900  0.75000  0.42857  Biso   1.000  O
  O45      1.0000 0.01800  0.00000  0.46729  Biso   1.000  O
  O46      1.0000 0.98200  0.00000  0.53271  Biso   1.000  O
  O47      1.0000 0.98200  0.50000  0.46729  Biso   1.000  O
  O48      1.0000 0.01800  0.50000  0.53271  Biso   1.000  O
  O49      1.0000 0.51800  0.00000  0.53871  Biso   1.000  O
  O50      1.0000 0.48200  0.00000  0.46129  Biso   1.000  O
  O51      1.0000 0.48200  0.50000  0.53871  Biso   1.000  O
  O52      1.0000 0.51800  0.50000  0.46129  Biso   1.000  O
  O53      1.0000 0.47000  0.16200  0.46543  Biso   1.000  O
  O54      1.0000 0.53000  0.83800  0.53457  Biso   1.000  O
  O55      1.0000 0.53000  0.16200  0.53457  Biso   1.000  O
  O56      1.0000 0.47000  0.83800  0.46543  Biso   1.000  O
  O57      1.0000 0.53000  0.33800  0.46543  Biso   1.000  O
  O58      1.0000 0.47000  0.66200  0.53457  Biso   1.000  O
  O59      1.0000 0.47000  0.33800  0.53457  Biso   1.000  O
  O60      1.0000 0.53000  0.66200  0.46543  Biso   1.000  O
  O61      1.0000 0.97000  0.16200  0.53686  Biso   1.000  O
  O62      1.0000 0.03000  0.83800  0.46314  Biso   1.000  O
  O63      1.0000 0.03000  0.16200  0.46314  Biso   1.000  O
  O64      1.0000 0.97000  0.83800  0.53686  Biso   1.000  O
  O65      1.0000 0.03000  0.33800  0.53686  Biso   1.000  O
  O66      1.0000 0.97000  0.66200  0.46314  Biso   1.000  O
  O67      1.0000 0.97000  0.33800  0.46314  Biso   1.000  O
  O68      1.0000 0.03000  0.66200  0.53686  Biso   1.000  O
  Ir21     1.0000 0.25000  0.08353  0.60714  Biso   1.000  Ir
  Ir22     1.0000 0.25000  0.91647  0.60714  Biso   1.000  Ir
  Ir23     1.0000 0.75000  0.41647  0.60714  Biso   1.000  Ir
  Ir24     1.0000 0.75000  0.58353  0.60714  Biso   1.000  Ir
  Ir25     1.0000 0.00000  0.16659  0.57143  Biso   1.000  Ir
  Ir26     1.0000 0.00000  0.83341  0.57143  Biso   1.000  Ir
  Ir27     1.0000 0.00000  0.33341  0.57143  Biso   1.000  Ir
  Ir28     1.0000 0.00000  0.66659  0.57143  Biso   1.000  Ir
  O69      1.0000 0.28400  0.91500  0.64029  Biso   1.000  O
  O70      1.0000 0.28400  0.08500  0.64029  Biso   1.000  O
  O71      1.0000 0.71600  0.58500  0.64029  Biso   1.000  O
  O72      1.0000 0.71600  0.41500  0.64029  Biso   1.000  O
  O73      1.0000 0.21600  0.08500  0.57400  Biso   1.000  O
  O74      1.0000 0.21600  0.91500  0.57400  Biso   1.000  O
  O75      1.0000 0.78400  0.41500  0.57400  Biso   1.000  O
  O76      1.0000 0.78400  0.58500  0.57400  Biso   1.000  O
  O77      1.0000 0.21900  0.25000  0.57143  Biso   1.000  O
  O78      1.0000 0.78100  0.75000  0.57143  Biso   1.000  O
  O79      1.0000 0.78100  0.25000  0.57143  Biso   1.000  O
  O80      1.0000 0.21900  0.75000  0.57143  Biso   1.000  O
  O81      1.0000 0.01800  0.00000  0.61014  Biso   1.000  O
  O82      1.0000 0.98200  0.50000  0.61014  Biso   1.000  O
  O83      1.0000 0.48200  0.00000  0.60414  Biso   1.000  O
  O84      1.0000 0.51800  0.50000  0.60414  Biso   1.000  O
  O85      1.0000 0.47000  0.16200  0.60829  Biso   1.000  O
  O86      1.0000 0.47000  0.83800  0.60829  Biso   1.000  O
  O87      1.0000 0.53000  0.33800  0.60829  Biso   1.000  O
  O88      1.0000 0.53000  0.66200  0.60829  Biso   1.000  O
  O89      1.0000 0.03000  0.83800  0.60600  Biso   1.000  O
  O90      1.0000 0.03000  0.16200  0.60600  Biso   1.000  O
  O91      1.0000 0.97000  0.66200  0.60600  Biso   1.000  O
  O92      1.0000 0.97000  0.33800  0.60600  Biso   1.000  O
