data_image0
_cell_length_a       8.45769
_cell_length_b       4.88305
_cell_length_c       38.7409
_cell_angle_alpha    90
_cell_angle_beta     90
_cell_angle_gamma    90

_symmetry_space_group_name_H-M    "P 1"
_symmetry_int_tables_number       1

loop_
  _symmetry_equiv_pos_as_xyz
  'x, y, z'

loop_
  _atom_site_label
  _atom_site_occupancy
  _atom_site_fract_x
  _atom_site_fract_y
  _atom_site_fract_z
  _atom_site_thermal_displace_type
  _atom_site_B_iso_or_equiv
  _atom_site_type_symbol
  Ir1      1.0000 0.66667  0.00000  0.37500  Biso   1.000  Ir
  Ir2      1.0000 0.16667  0.50000  0.37500  Biso   1.000  Ir
  Ir3      1.0000 0.00000  0.00000  0.26389  Biso   1.000  Ir
  Ir4      1.0000 0.50000  0.50000  0.26389  Biso   1.000  Ir
  Ir5      1.0000 0.33333  0.00000  0.48611  Biso   1.000  Ir
  Ir6      1.0000 0.83333  0.50000  0.48611  Biso   1.000  Ir
  Ir7      1.0000 0.66667  0.00000  0.20833  Biso   1.000  Ir
  Ir8      1.0000 0.16667  0.50000  0.20833  Biso   1.000  Ir
  Ir9      1.0000 0.50000  0.50000  0.43056  Biso   1.000  Ir
  Ir10     1.0000 0.00000  0.00000  0.43056  Biso   1.000  Ir
  Ir11     1.0000 0.33333  0.00000  0.31944  Biso   1.000  Ir
  Ir12     1.0000 0.83333  0.50000  0.31944  Biso   1.000  Ir
  Ir13     1.0000 0.50000  0.50000  0.59722  Biso   1.000  Ir
  Ir14     1.0000 0.00000  0.00000  0.59722  Biso   1.000  Ir
  Ir15     1.0000 0.66667  0.00000  0.54167  Biso   1.000  Ir
  Ir16     1.0000 0.16667  0.50000  0.54167  Biso   1.000  Ir
  O1       1.0000 0.66048  0.32715  0.40278  Biso   1.000  O
  O2       1.0000 0.16048  0.82715  0.40278  Biso   1.000  O
  O3       1.0000 0.49383  0.82715  0.29167  Biso   1.000  O
  O4       1.0000 0.99382  0.32715  0.29167  Biso   1.000  O
  O5       1.0000 0.32715  0.32715  0.18056  Biso   1.000  O
  O6       1.0000 0.82715  0.82715  0.18056  Biso   1.000  O
  O7       1.0000 0.49382  0.17285  0.45833  Biso   1.000  O
  O8       1.0000 0.99382  0.67285  0.45833  Biso   1.000  O
  O9       1.0000 0.32715  0.67285  0.34722  Biso   1.000  O
  O10      1.0000 0.82715  0.17285  0.34722  Biso   1.000  O
  O11      1.0000 0.66048  0.67285  0.23611  Biso   1.000  O
  O12      1.0000 0.16047  0.17285  0.23611  Biso   1.000  O
  O13      1.0000 0.50618  0.82715  0.40278  Biso   1.000  O
  O14      1.0000 0.00618  0.32715  0.40278  Biso   1.000  O
  O15      1.0000 0.33952  0.32715  0.29167  Biso   1.000  O
  O16      1.0000 0.83952  0.82715  0.29167  Biso   1.000  O
  O17      1.0000 0.17284  0.82715  0.18056  Biso   1.000  O
  O18      1.0000 0.67285  0.32715  0.18056  Biso   1.000  O
  O19      1.0000 0.33953  0.67285  0.45833  Biso   1.000  O
  O20      1.0000 0.83953  0.17285  0.45833  Biso   1.000  O
  O21      1.0000 0.17286  0.17285  0.34722  Biso   1.000  O
  O22      1.0000 0.67285  0.67285  0.34722  Biso   1.000  O
  O23      1.0000 0.50618  0.17285  0.23611  Biso   1.000  O
  O24      1.0000 0.00618  0.67285  0.23611  Biso   1.000  O
  O25      1.0000 0.83333  0.84569  0.40278  Biso   1.000  O
  O26      1.0000 0.33333  0.34569  0.40278  Biso   1.000  O
  O27      1.0000 0.16667  0.84569  0.29167  Biso   1.000  O
  O28      1.0000 0.66667  0.34569  0.29167  Biso   1.000  O
  O29      1.0000 0.50000  0.84569  0.18056  Biso   1.000  O
  O30      1.0000 0.00000  0.34569  0.18056  Biso   1.000  O
  O31      1.0000 0.16667  0.15429  0.45833  Biso   1.000  O
  O32      1.0000 0.66667  0.65429  0.45833  Biso   1.000  O
  O33      1.0000 0.50000  0.15429  0.34722  Biso   1.000  O
  O34      1.0000 0.00000  0.65429  0.34722  Biso   1.000  O
  O35      1.0000 0.83333  0.15429  0.23611  Biso   1.000  O
  O36      1.0000 0.33333  0.65429  0.23611  Biso   1.000  O
  O37      1.0000 0.49383  0.82715  0.62500  Biso   1.000  O
  O38      1.0000 0.99382  0.32715  0.62500  Biso   1.000  O
  O39      1.0000 0.32715  0.32715  0.51389  Biso   1.000  O
  O40      1.0000 0.82715  0.82715  0.51389  Biso   1.000  O
  O41      1.0000 0.66048  0.67285  0.56944  Biso   1.000  O
  O42      1.0000 0.16047  0.17285  0.56944  Biso   1.000  O
  O43      1.0000 0.33952  0.32715  0.62500  Biso   1.000  O
  O44      1.0000 0.83952  0.82715  0.62500  Biso   1.000  O
  O45      1.0000 0.17284  0.82715  0.51389  Biso   1.000  O
  O46      1.0000 0.67285  0.32715  0.51389  Biso   1.000  O
  O47      1.0000 0.50618  0.17285  0.56944  Biso   1.000  O
  O48      1.0000 0.00618  0.67285  0.56944  Biso   1.000  O
  O49      1.0000 0.16667  0.84569  0.62500  Biso   1.000  O
  O50      1.0000 0.66667  0.34569  0.62500  Biso   1.000  O
  O51      1.0000 0.50000  0.84569  0.51389  Biso   1.000  O
  O52      1.0000 0.00000  0.34569  0.51389  Biso   1.000  O
  O53      1.0000 0.83333  0.15429  0.56944  Biso   1.000  O
  O54      1.0000 0.33333  0.65429  0.56944  Biso   1.000  O
