data_image0
_cell_length_a       5.9119
_cell_length_b       17.836
_cell_length_c       33.7844
_cell_angle_alpha    90
_cell_angle_beta     90
_cell_angle_gamma    90

_symmetry_space_group_name_H-M    "P 1"
_symmetry_int_tables_number       1

loop_
  _symmetry_equiv_pos_as_xyz
  'x, y, z'

loop_
  _atom_site_label
  _atom_site_occupancy
  _atom_site_fract_x
  _atom_site_fract_y
  _atom_site_fract_z
  _atom_site_thermal_displace_type
  _atom_site_B_iso_or_equiv
  _atom_site_type_symbol
  Ir1      1.0000 0.75000  0.91647  0.43750  Biso   1.000  Ir
  Ir2      1.0000 0.75000  0.08353  0.43750  Biso   1.000  Ir
  Ir3      1.0000 0.25000  0.58353  0.43750  Biso   1.000  Ir
  Ir4      1.0000 0.25000  0.41647  0.43750  Biso   1.000  Ir
  Ir5      1.0000 0.50000  0.16659  0.37500  Biso   1.000  Ir
  Ir6      1.0000 0.50000  0.83341  0.37500  Biso   1.000  Ir
  Ir7      1.0000 0.50000  0.33341  0.37500  Biso   1.000  Ir
  Ir8      1.0000 0.50000  0.66659  0.37500  Biso   1.000  Ir
  Ir9      1.0000 0.27869  0.07669  0.55996  Biso   1.000  Ir
  Ir10     1.0000 0.30869  0.90180  0.56845  Biso   1.000  Ir
  Ir11     1.0000 0.71434  0.42021  0.57152  Biso   1.000  Ir
  Ir12     1.0000 0.70776  0.59423  0.56770  Biso   1.000  Ir
  Ir13     1.0000 0.02477  0.17059  0.49841  Biso   1.000  Ir
  Ir14     1.0000 0.01785  0.83534  0.50034  Biso   1.000  Ir
  Ir15     1.0000 0.96973  0.34002  0.50130  Biso   1.000  Ir
  Ir16     1.0000 0.97660  0.66577  0.49904  Biso   1.000  Ir
  O1       1.0000 0.71600  0.08500  0.37950  Biso   1.000  O
  O2       1.0000 0.28400  0.91500  0.37050  Biso   1.000  O
  O3       1.0000 0.28400  0.08500  0.37050  Biso   1.000  O
  O4       1.0000 0.71600  0.91500  0.37950  Biso   1.000  O
  O5       1.0000 0.28400  0.41500  0.37950  Biso   1.000  O
  O6       1.0000 0.71600  0.58500  0.37050  Biso   1.000  O
  O7       1.0000 0.71600  0.41500  0.37050  Biso   1.000  O
  O8       1.0000 0.28400  0.58500  0.37950  Biso   1.000  O
  O9       1.0000 0.79286  0.90898  0.49434  Biso   1.000  O
  O10      1.0000 0.79959  0.09269  0.49281  Biso   1.000  O
  O11      1.0000 0.20519  0.59298  0.49420  Biso   1.000  O
  O12      1.0000 0.19719  0.41086  0.49428  Biso   1.000  O
  O13      1.0000 0.71900  0.25000  0.37500  Biso   1.000  O
  O14      1.0000 0.28100  0.75000  0.37500  Biso   1.000  O
  O15      1.0000 0.28100  0.25000  0.37500  Biso   1.000  O
  O16      1.0000 0.71900  0.75000  0.37500  Biso   1.000  O
  O17      1.0000 0.98200  0.00000  0.43225  Biso   1.000  O
  O18      1.0000 0.01800  0.50000  0.43225  Biso   1.000  O
  O19      1.0000 0.51800  0.00000  0.44275  Biso   1.000  O
  O20      1.0000 0.48200  0.50000  0.44275  Biso   1.000  O
  O21      1.0000 0.53000  0.83800  0.43550  Biso   1.000  O
  O22      1.0000 0.53000  0.16200  0.43550  Biso   1.000  O
  O23      1.0000 0.47000  0.66200  0.43550  Biso   1.000  O
  O24      1.0000 0.47000  0.33800  0.43550  Biso   1.000  O
  O25      1.0000 0.97000  0.16200  0.43950  Biso   1.000  O
  O26      1.0000 0.97000  0.83800  0.43950  Biso   1.000  O
  O27      1.0000 0.03000  0.33800  0.43950  Biso   1.000  O
  O28      1.0000 0.03000  0.66200  0.43950  Biso   1.000  O
  O29      1.0000 0.22510  0.89585  0.61829  Biso   1.000  O
  O30      1.0000 0.80818  0.58924  0.61727  Biso   1.000  O
  O31      1.0000 0.80628  0.41059  0.62014  Biso   1.000  O
  O32      1.0000 0.29769  0.10261  0.50653  Biso   1.000  O
  O33      1.0000 0.26972  0.89924  0.50999  Biso   1.000  O
  O34      1.0000 0.71618  0.39972  0.50842  Biso   1.000  O
  O35      1.0000 0.72042  0.60438  0.50809  Biso   1.000  O
  O36      1.0000 0.20458  0.25640  0.49712  Biso   1.000  O
  O37      1.0000 0.79232  0.75424  0.49817  Biso   1.000  O
  O38      1.0000 0.79801  0.25031  0.49944  Biso   1.000  O
  O39      1.0000 0.19998  0.74713  0.49919  Biso   1.000  O
  O40      1.0000 0.08692  0.99828  0.56919  Biso   1.000  O
  O41      1.0000 0.89947  0.50220  0.55489  Biso   1.000  O
  O42      1.0000 0.49001  0.99020  0.55969  Biso   1.000  O
  O43      1.0000 0.50539  0.50192  0.57048  Biso   1.000  O
  O44      1.0000 0.42523  0.12488  0.59663  Biso   1.000  O
  O45      1.0000 0.55304  0.84578  0.56762  Biso   1.000  O
  O46      1.0000 0.47922  0.35810  0.56772  Biso   1.000  O
  O47      1.0000 0.45758  0.64562  0.57032  Biso   1.000  O
  O48      1.0000 0.03660  0.84323  0.55793  Biso   1.000  O
  O49      1.0000 0.02209  0.14702  0.55340  Biso   1.000  O
  O50      1.0000 0.96438  0.65656  0.55691  Biso   1.000  O
  O51      1.0000 0.97171  0.35127  0.55697  Biso   1.000  O
