data_image0
_cell_length_a       7.0938
_cell_length_b       9.766
_cell_length_c       24.3345
_cell_angle_alpha    90
_cell_angle_beta     90
_cell_angle_gamma    90

_symmetry_space_group_name_H-M    "P 1"
_symmetry_int_tables_number       1

loop_
  _symmetry_equiv_pos_as_xyz
  'x, y, z'

loop_
  _atom_site_label
  _atom_site_occupancy
  _atom_site_fract_x
  _atom_site_fract_y
  _atom_site_fract_z
  _atom_site_thermal_displace_type
  _atom_site_B_iso_or_equiv
  _atom_site_type_symbol
  Ir1      1.0000 0.82849  0.00000  0.30820  Biso   1.000  Ir
  Ir2      1.0000 0.30232  0.25000  0.41366  Biso   1.000  Ir
  Ir3      1.0000 0.77618  0.99899  0.51896  Biso   1.000  Ir
  Ir4      1.0000 0.25452  0.25183  0.63205  Biso   1.000  Ir
  Ir5      1.0000 0.32849  0.00000  0.30820  Biso   1.000  Ir
  Ir6      1.0000 0.80232  0.25000  0.41366  Biso   1.000  Ir
  Ir7      1.0000 0.27491  0.00000  0.51950  Biso   1.000  Ir
  Ir8      1.0000 0.74794  0.24417  0.62741  Biso   1.000  Ir
  Ir9      1.0000 0.82849  0.50000  0.30820  Biso   1.000  Ir
  Ir10     1.0000 0.30232  0.75000  0.41366  Biso   1.000  Ir
  Ir11     1.0000 0.77622  0.50223  0.51987  Biso   1.000  Ir
  Ir12     1.0000 0.24738  0.74975  0.63232  Biso   1.000  Ir
  Ir13     1.0000 0.32849  0.50000  0.30820  Biso   1.000  Ir
  Ir14     1.0000 0.80232  0.75000  0.41366  Biso   1.000  Ir
  Ir15     1.0000 0.27557  0.49978  0.51942  Biso   1.000  Ir
  Ir16     1.0000 0.74763  0.75508  0.63308  Biso   1.000  Ir
  O1       1.0000 0.74229  0.16358  0.34466  Biso   1.000  O
  O2       1.0000 0.21613  0.41358  0.45010  Biso   1.000  O
  O3       1.0000 0.69309  0.16296  0.55658  Biso   1.000  O
  O4       1.0000 0.16129  0.40510  0.65969  Biso   1.000  O
  O5       1.0000 0.24230  0.33643  0.34466  Biso   1.000  O
  O6       1.0000 0.71613  0.08643  0.45011  Biso   1.000  O
  O7       1.0000 0.19519  0.34013  0.55629  Biso   1.000  O
  O8       1.0000 0.64597  0.10701  0.66522  Biso   1.000  O
  O9       1.0000 0.88852  0.41358  0.37720  Biso   1.000  O
  O10      1.0000 0.36236  0.16358  0.48265  Biso   1.000  O
  O11      1.0000 0.82858  0.40478  0.58719  Biso   1.000  O
  O12      1.0000 0.32458  0.16028  0.69172  Biso   1.000  O
  O13      1.0000 0.38851  0.08643  0.37719  Biso   1.000  O
  O14      1.0000 0.86235  0.33643  0.48265  Biso   1.000  O
  O15      1.0000 0.32290  0.09788  0.58673  Biso   1.000  O
  O16      1.0000 0.57849  0.42284  0.30820  Biso   1.000  O
  O17      1.0000 0.05232  0.17284  0.41366  Biso   1.000  O
  O18      1.0000 0.52604  0.42415  0.51877  Biso   1.000  O
  O19      1.0000 0.99886  0.17441  0.62823  Biso   1.000  O
  O20      1.0000 0.07849  0.07715  0.30820  Biso   1.000  O
  O21      1.0000 0.55232  0.32715  0.41366  Biso   1.000  O
  O22      1.0000 0.02424  0.07777  0.51897  Biso   1.000  O
  O23      1.0000 0.49878  0.33363  0.62374  Biso   1.000  O
  O24      1.0000 0.74229  0.66358  0.34466  Biso   1.000  O
  O25      1.0000 0.21613  0.91358  0.45010  Biso   1.000  O
  O26      1.0000 0.69888  0.65991  0.55751  Biso   1.000  O
  O27      1.0000 0.14928  0.89724  0.66387  Biso   1.000  O
  O28      1.0000 0.24230  0.83643  0.34466  Biso   1.000  O
  O29      1.0000 0.71613  0.58643  0.45011  Biso   1.000  O
  O30      1.0000 0.19750  0.84146  0.55828  Biso   1.000  O
  O31      1.0000 0.64614  0.60550  0.66154  Biso   1.000  O
  O32      1.0000 0.88852  0.91358  0.37720  Biso   1.000  O
  O33      1.0000 0.36236  0.66358  0.48265  Biso   1.000  O
  O34      1.0000 0.82455  0.90433  0.58648  Biso   1.000  O
  O35      1.0000 0.32801  0.65911  0.69088  Biso   1.000  O
  O36      1.0000 0.38851  0.58643  0.37719  Biso   1.000  O
  O37      1.0000 0.86235  0.83643  0.48265  Biso   1.000  O
  O38      1.0000 0.32414  0.59705  0.58597  Biso   1.000  O
  O39      1.0000 0.82564  0.84127  0.69276  Biso   1.000  O
  O40      1.0000 0.57849  0.92284  0.30820  Biso   1.000  O
  O41      1.0000 0.05232  0.67284  0.41366  Biso   1.000  O
  O42      1.0000 0.52476  0.92528  0.51867  Biso   1.000  O
  O43      1.0000 0.99916  0.67067  0.62507  Biso   1.000  O
  O44      1.0000 0.07849  0.57715  0.30820  Biso   1.000  O
  O45      1.0000 0.55232  0.82715  0.41366  Biso   1.000  O
  O46      1.0000 0.02597  0.57655  0.51788  Biso   1.000  O
  O47      1.0000 0.49975  0.83354  0.62461  Biso   1.000  O
  O48      1.0000 0.78694  0.34770  0.69582  Biso   1.000  O
  O49      1.0000 0.85543  0.26159  0.73804  Biso   1.000  O
  H1       1.0000 0.84792  0.32530  0.76932  Biso   1.000  H
