data_image0
_cell_length_a       8.61194
_cell_length_b       5.1456
_cell_length_c       27.6767
_cell_angle_alpha    90
_cell_angle_beta     90
_cell_angle_gamma    93.4064

_symmetry_space_group_name_H-M    "P 1"
_symmetry_int_tables_number       1

loop_
  _symmetry_equiv_pos_as_xyz
  'x, y, z'

loop_
  _atom_site_label
  _atom_site_occupancy
  _atom_site_fract_x
  _atom_site_fract_y
  _atom_site_fract_z
  _atom_site_thermal_displace_type
  _atom_site_B_iso_or_equiv
  _atom_site_type_symbol
  O1       1.0000 0.61912  0.78483  0.27099  Biso   1.000  O
  O2       1.0000 0.11912  0.28484  0.27099  Biso   1.000  O
  O3       1.0000 0.56935  0.27989  0.29339  Biso   1.000  O
  O4       1.0000 0.06935  0.77990  0.29339  Biso   1.000  O
  O5       1.0000 0.85329  0.11945  0.32119  Biso   1.000  O
  O6       1.0000 0.35329  0.61946  0.32119  Biso   1.000  O
  O7       1.0000 0.30350  0.11449  0.34360  Biso   1.000  O
  O8       1.0000 0.80350  0.61450  0.34360  Biso   1.000  O
  O9       1.0000 0.58087  0.93669  0.36600  Biso   1.000  O
  O10      1.0000 0.08088  0.43670  0.36600  Biso   1.000  O
  O11      1.0000 0.51913  0.43056  0.39379  Biso   1.000  O
  O12      1.0000 0.01914  0.93057  0.39379  Biso   1.000  O
  O13      1.0000 0.29648  0.75275  0.41619  Biso   1.000  O
  O14      1.0000 0.79648  0.25276  0.41619  Biso   1.000  O
  O15      1.0000 0.74670  0.74781  0.43860  Biso   1.000  O
  O16      1.0000 0.24670  0.24780  0.43860  Biso   1.000  O
  O17      1.0000 0.53065  0.08737  0.46640  Biso   1.000  O
  O18      1.0000 0.03065  0.58738  0.46640  Biso   1.000  O
  O19      1.0000 0.48087  0.58241  0.48880  Biso   1.000  O
  O20      1.0000 0.98087  0.08240  0.48880  Biso   1.000  O
  O21      1.0000 0.25875  0.90420  0.51124  Biso   1.000  O
  O22      1.0000 0.75748  0.40431  0.51138  Biso   1.000  O
  O23      1.0000 0.69466  0.90047  0.54090  Biso   1.000  O
  O24      1.0000 0.19637  0.40129  0.54009  Biso   1.000  O
  O25      1.0000 0.47204  0.22258  0.56120  Biso   1.000  O
  O26      1.0000 0.97302  0.72090  0.56073  Biso   1.000  O
  O27      1.0000 0.41951  0.71618  0.58338  Biso   1.000  O
  O28      1.0000 0.92239  0.22099  0.58425  Biso   1.000  O
  O29      1.0000 0.20852  0.05774  0.61201  Biso   1.000  O
  O30      1.0000 0.69967  0.57120  0.61551  Biso   1.000  O
  O31      1.0000 0.65724  0.04701  0.63726  Biso   1.000  O
  O32      1.0000 0.16032  0.55723  0.63421  Biso   1.000  O
  O33      1.0000 0.44104  0.36990  0.65415  Biso   1.000  O
  O34      1.0000 0.94702  0.87014  0.65480  Biso   1.000  O
  O35      1.0000 0.36334  0.83576  0.68416  Biso   1.000  O
  O36      1.0000 0.87036  0.35218  0.68130  Biso   1.000  O
  O37      1.0000 0.60793  0.43103  0.73013  Biso   1.000  O
  O38      1.0000 0.15498  0.18184  0.70422  Biso   1.000  O
  O39      1.0000 0.09023  0.67339  0.72857  Biso   1.000  O
  Ir1      1.0000 0.46131  0.94967  0.30728  Biso   1.000  Ir
  Ir2      1.0000 0.96133  0.44968  0.30728  Biso   1.000  Ir
  Ir3      1.0000 0.80001  0.93362  0.37989  Biso   1.000  Ir
  Ir4      1.0000 0.30001  0.43363  0.37989  Biso   1.000  Ir
  Ir5      1.0000 0.13868  0.91758  0.45249  Biso   1.000  Ir
  Ir6      1.0000 0.63868  0.41759  0.45249  Biso   1.000  Ir
  Ir7      1.0000 0.47700  0.90286  0.52557  Biso   1.000  Ir
  Ir8      1.0000 0.97720  0.40173  0.52497  Biso   1.000  Ir
  Ir9      1.0000 0.82159  0.89003  0.59852  Biso   1.000  Ir
  Ir10     1.0000 0.31334  0.38269  0.59899  Biso   1.000  Ir
  Ir11     1.0000 0.16134  0.86612  0.67991  Biso   1.000  Ir
  Ir12     1.0000 0.66686  0.36823  0.67153  Biso   1.000  Ir
