data_image0
_cell_length_a       4.69635
_cell_length_b       8.72335
_cell_length_c       57.4202
_cell_angle_alpha    90
_cell_angle_beta     90
_cell_angle_gamma    90

_symmetry_space_group_name_H-M    "P 1"
_symmetry_int_tables_number       1

loop_
  _symmetry_equiv_pos_as_xyz
  'x, y, z'

loop_
  _atom_site_label
  _atom_site_occupancy
  _atom_site_fract_x
  _atom_site_fract_y
  _atom_site_fract_z
  _atom_site_thermal_displace_type
  _atom_site_B_iso_or_equiv
  _atom_site_type_symbol
  O1       1.0000 0.46794  0.17526  0.36117  Biso   1.000  O
  O2       1.0000 0.46794  0.82474  0.36117  Biso   1.000  O
  O3       1.0000 0.96794  0.32474  0.36732  Biso   1.000  O
  O4       1.0000 0.96794  0.67526  0.36732  Biso   1.000  O
  O5       1.0000 0.99999  0.00000  0.36994  Biso   1.000  O
  Ir1      1.0000 0.18033  0.17534  0.38469  Biso   1.000  Ir
  Ir2      1.0000 0.18033  0.82466  0.38469  Biso   1.000  Ir
  O6       1.0000 0.36068  0.00000  0.39944  Biso   1.000  O
  O7       1.0000 0.39273  0.32474  0.40206  Biso   1.000  O
  O8       1.0000 0.39273  0.67526  0.40206  Biso   1.000  O
  O9       1.0000 0.89272  0.17526  0.40821  Biso   1.000  O
  O10      1.0000 0.89272  0.82474  0.40821  Biso   1.000  O
  O11      1.0000 0.86068  0.50000  0.41084  Biso   1.000  O
  Ir3      1.0000 0.68033  0.32466  0.42559  Biso   1.000  Ir
  Ir4      1.0000 0.68033  0.67535  0.42559  Biso   1.000  Ir
  O12      1.0000 0.49998  0.50000  0.44034  Biso   1.000  O
  O13      1.0000 0.46794  0.17526  0.44296  Biso   1.000  O
  O14      1.0000 0.46794  0.82474  0.44296  Biso   1.000  O
  O15      1.0000 0.96794  0.32474  0.44911  Biso   1.000  O
  O16      1.0000 0.96794  0.67526  0.44911  Biso   1.000  O
  O17      1.0000 0.99999  0.00000  0.45173  Biso   1.000  O
  Ir5      1.0000 0.18033  0.17534  0.46648  Biso   1.000  Ir
  Ir6      1.0000 0.18033  0.82466  0.46648  Biso   1.000  Ir
  O18      1.0000 0.36068  0.00000  0.48123  Biso   1.000  O
  O19      1.0000 0.39273  0.32474  0.48385  Biso   1.000  O
  O20      1.0000 0.39273  0.67526  0.48385  Biso   1.000  O
  O21      1.0000 0.89272  0.17526  0.49000  Biso   1.000  O
  O22      1.0000 0.89272  0.82474  0.49000  Biso   1.000  O
  O23      1.0000 0.86068  0.50000  0.49262  Biso   1.000  O
  Ir7      1.0000 0.68033  0.32466  0.50737  Biso   1.000  Ir
  Ir8      1.0000 0.68033  0.67535  0.50737  Biso   1.000  Ir
  O24      1.0000 0.49998  0.50000  0.52213  Biso   1.000  O
  O25      1.0000 0.46794  0.17526  0.52475  Biso   1.000  O
  O26      1.0000 0.46794  0.82474  0.52475  Biso   1.000  O
  O27      1.0000 0.96794  0.32474  0.53090  Biso   1.000  O
  O28      1.0000 0.96794  0.67526  0.53090  Biso   1.000  O
  O29      1.0000 0.99999  0.00000  0.53352  Biso   1.000  O
  Ir9      1.0000 0.18033  0.17534  0.54827  Biso   1.000  Ir
  Ir10     1.0000 0.18033  0.82466  0.54827  Biso   1.000  Ir
  O30      1.0000 0.36068  0.00000  0.56302  Biso   1.000  O
  O31      1.0000 0.39273  0.32474  0.56564  Biso   1.000  O
  O32      1.0000 0.39273  0.67526  0.56564  Biso   1.000  O
  O33      1.0000 0.89272  0.17526  0.57179  Biso   1.000  O
  O34      1.0000 0.89272  0.82474  0.57179  Biso   1.000  O
  O35      1.0000 0.86068  0.50000  0.57441  Biso   1.000  O
  Ir11     1.0000 0.68033  0.32466  0.58916  Biso   1.000  Ir
  Ir12     1.0000 0.68033  0.67535  0.58916  Biso   1.000  Ir
  O36      1.0000 0.49998  0.50000  0.60391  Biso   1.000  O
  O37      1.0000 0.46794  0.17526  0.60654  Biso   1.000  O
  O38      1.0000 0.46794  0.82474  0.60654  Biso   1.000  O
  O39      1.0000 0.96794  0.32474  0.61269  Biso   1.000  O
  O40      1.0000 0.96794  0.67526  0.61269  Biso   1.000  O
  O41      1.0000 0.99999  0.00000  0.61531  Biso   1.000  O
  Ir13     1.0000 0.18034  0.17534  0.63006  Biso   1.000  Ir
  Ir14     1.0000 0.18034  0.82466  0.63006  Biso   1.000  Ir
  O42      1.0000 0.36069  0.00000  0.64481  Biso   1.000  O
  O43      1.0000 0.39274  0.32474  0.64743  Biso   1.000  O
  O44      1.0000 0.39274  0.67526  0.64743  Biso   1.000  O
  O45      1.0000 0.89273  0.17526  0.65358  Biso   1.000  O
  O46      1.0000 0.89273  0.82474  0.65358  Biso   1.000  O
