data_image0
_cell_length_a       4.69635
_cell_length_b       8.72335
_cell_length_c       57.4202
_cell_angle_alpha    90
_cell_angle_beta     90
_cell_angle_gamma    90

_symmetry_space_group_name_H-M    "P 1"
_symmetry_int_tables_number       1

loop_
  _symmetry_equiv_pos_as_xyz
  'x, y, z'

loop_
  _atom_site_label
  _atom_site_occupancy
  _atom_site_fract_x
  _atom_site_fract_y
  _atom_site_fract_z
  _atom_site_thermal_displace_type
  _atom_site_B_iso_or_equiv
  _atom_site_type_symbol
  O1       1.0000 0.39272  0.32474  0.15670  Biso   1.000  O
  O2       1.0000 0.39272  0.67526  0.15670  Biso   1.000  O
  O3       1.0000 0.89272  0.17526  0.16285  Biso   1.000  O
  O4       1.0000 0.89272  0.82474  0.16285  Biso   1.000  O
  O5       1.0000 0.86068  0.50000  0.16547  Biso   1.000  O
  Ir1      1.0000 0.68033  0.32466  0.18022  Biso   1.000  Ir
  Ir2      1.0000 0.68033  0.67535  0.18022  Biso   1.000  Ir
  O6       1.0000 0.49998  0.50000  0.19497  Biso   1.000  O
  O7       1.0000 0.46794  0.17526  0.19759  Biso   1.000  O
  O8       1.0000 0.46794  0.82474  0.19759  Biso   1.000  O
  O9       1.0000 0.96794  0.32474  0.20374  Biso   1.000  O
  O10      1.0000 0.96794  0.67526  0.20374  Biso   1.000  O
  O11      1.0000 0.99999  0.00000  0.20636  Biso   1.000  O
  Ir3      1.0000 0.18033  0.17534  0.22111  Biso   1.000  Ir
  Ir4      1.0000 0.18033  0.82466  0.22111  Biso   1.000  Ir
  O12      1.0000 0.36068  0.00000  0.23586  Biso   1.000  O
  O13      1.0000 0.39273  0.32474  0.23848  Biso   1.000  O
  O14      1.0000 0.39273  0.67526  0.23848  Biso   1.000  O
  O15      1.0000 0.89272  0.17526  0.24464  Biso   1.000  O
  O16      1.0000 0.89272  0.82474  0.24464  Biso   1.000  O
  O17      1.0000 0.86068  0.50000  0.24726  Biso   1.000  O
  Ir5      1.0000 0.68033  0.32466  0.26201  Biso   1.000  Ir
  Ir6      1.0000 0.68033  0.67535  0.26201  Biso   1.000  Ir
  O18      1.0000 0.49998  0.50000  0.27676  Biso   1.000  O
  O19      1.0000 0.46794  0.17526  0.27938  Biso   1.000  O
  O20      1.0000 0.46794  0.82474  0.27938  Biso   1.000  O
  O21      1.0000 0.96794  0.32474  0.28553  Biso   1.000  O
  O22      1.0000 0.96794  0.67526  0.28553  Biso   1.000  O
  O23      1.0000 0.99999  0.00000  0.28815  Biso   1.000  O
  Ir7      1.0000 0.18033  0.17534  0.30290  Biso   1.000  Ir
  Ir8      1.0000 0.18033  0.82466  0.30290  Biso   1.000  Ir
  O24      1.0000 0.36068  0.00000  0.31765  Biso   1.000  O
  O25      1.0000 0.39273  0.32474  0.32027  Biso   1.000  O
  O26      1.0000 0.39273  0.67526  0.32027  Biso   1.000  O
  O27      1.0000 0.89272  0.17526  0.32643  Biso   1.000  O
  O28      1.0000 0.89272  0.82474  0.32643  Biso   1.000  O
  O29      1.0000 0.86068  0.50000  0.32905  Biso   1.000  O
  Ir9      1.0000 0.68033  0.32466  0.34380  Biso   1.000  Ir
  Ir10     1.0000 0.68033  0.67535  0.34380  Biso   1.000  Ir
  O30      1.0000 0.49998  0.50000  0.35855  Biso   1.000  O
  O31      1.0000 0.46794  0.17526  0.36117  Biso   1.000  O
  O32      1.0000 0.46794  0.82474  0.36117  Biso   1.000  O
  O33      1.0000 0.96794  0.32474  0.36732  Biso   1.000  O
  O34      1.0000 0.96794  0.67526  0.36732  Biso   1.000  O
  O35      1.0000 0.99999  0.00000  0.36994  Biso   1.000  O
  Ir11     1.0000 0.18033  0.17534  0.38469  Biso   1.000  Ir
  Ir12     1.0000 0.18033  0.82466  0.38469  Biso   1.000  Ir
  O36      1.0000 0.36068  0.00000  0.39944  Biso   1.000  O
  O37      1.0000 0.39273  0.32474  0.40206  Biso   1.000  O
  O38      1.0000 0.39273  0.67526  0.40206  Biso   1.000  O
  O39      1.0000 0.89272  0.17526  0.40821  Biso   1.000  O
  O40      1.0000 0.89272  0.82474  0.40821  Biso   1.000  O
  O41      1.0000 0.86068  0.50000  0.41084  Biso   1.000  O
  Ir13     1.0000 0.68033  0.32466  0.42559  Biso   1.000  Ir
  Ir14     1.0000 0.68033  0.67535  0.42559  Biso   1.000  Ir
  O42      1.0000 0.49998  0.50000  0.44034  Biso   1.000  O
  O43      1.0000 0.46794  0.17526  0.44296  Biso   1.000  O
  O44      1.0000 0.46794  0.82474  0.44296  Biso   1.000  O
  O45      1.0000 0.96794  0.32474  0.44911  Biso   1.000  O
  O46      1.0000 0.96794  0.67526  0.44911  Biso   1.000  O
  O47      1.0000 0.99999  0.00000  0.45173  Biso   1.000  O
  Ir15     1.0000 0.18033  0.17534  0.46648  Biso   1.000  Ir
  Ir16     1.0000 0.18033  0.82466  0.46648  Biso   1.000  Ir
  O48      1.0000 0.36068  0.00000  0.48123  Biso   1.000  O
  O49      1.0000 0.39273  0.32474  0.48385  Biso   1.000  O
  O50      1.0000 0.39273  0.67526  0.48385  Biso   1.000  O
  O51      1.0000 0.89272  0.17526  0.49000  Biso   1.000  O
  O52      1.0000 0.89272  0.82474  0.49000  Biso   1.000  O
  O53      1.0000 0.86068  0.50000  0.49262  Biso   1.000  O
  Ir17     1.0000 0.68033  0.32466  0.50737  Biso   1.000  Ir
  Ir18     1.0000 0.68033  0.67535  0.50737  Biso   1.000  Ir
  O54      1.0000 0.49998  0.50000  0.52213  Biso   1.000  O
  O55      1.0000 0.46794  0.17526  0.52475  Biso   1.000  O
  O56      1.0000 0.46794  0.82474  0.52475  Biso   1.000  O
  O57      1.0000 0.96794  0.32474  0.53090  Biso   1.000  O
  O58      1.0000 0.96794  0.67526  0.53090  Biso   1.000  O
  O59      1.0000 0.99999  0.00000  0.53352  Biso   1.000  O
  Ir19     1.0000 0.18033  0.17534  0.54827  Biso   1.000  Ir
  Ir20     1.0000 0.18033  0.82466  0.54827  Biso   1.000  Ir
  O60      1.0000 0.36068  0.00000  0.56302  Biso   1.000  O
  O61      1.0000 0.39273  0.32474  0.56564  Biso   1.000  O
  O62      1.0000 0.39273  0.67526  0.56564  Biso   1.000  O
  O63      1.0000 0.89272  0.17526  0.57179  Biso   1.000  O
  O64      1.0000 0.89272  0.82474  0.57179  Biso   1.000  O
  O65      1.0000 0.86068  0.50000  0.57441  Biso   1.000  O
  Ir21     1.0000 0.68033  0.32466  0.58916  Biso   1.000  Ir
  Ir22     1.0000 0.68033  0.67535  0.58916  Biso   1.000  Ir
  O66      1.0000 0.49998  0.50000  0.60391  Biso   1.000  O
  O67      1.0000 0.46794  0.17526  0.60654  Biso   1.000  O
  O68      1.0000 0.46794  0.82474  0.60654  Biso   1.000  O
  O69      1.0000 0.96794  0.32474  0.61269  Biso   1.000  O
  O70      1.0000 0.96794  0.67526  0.61269  Biso   1.000  O
  O71      1.0000 0.99999  0.00000  0.61531  Biso   1.000  O
  Ir23     1.0000 0.18034  0.17534  0.63006  Biso   1.000  Ir
  Ir24     1.0000 0.18034  0.82466  0.63006  Biso   1.000  Ir
  O72      1.0000 0.36069  0.00000  0.64481  Biso   1.000  O
  O73      1.0000 0.39274  0.32474  0.64743  Biso   1.000  O
  O74      1.0000 0.39274  0.67526  0.64743  Biso   1.000  O
  O75      1.0000 0.89273  0.17526  0.65358  Biso   1.000  O
  O76      1.0000 0.89273  0.82474  0.65358  Biso   1.000  O
  O77      1.0000 0.86069  0.50000  0.65620  Biso   1.000  O
  Ir25     1.0000 0.68034  0.32466  0.67095  Biso   1.000  Ir
  Ir26     1.0000 0.68034  0.67535  0.67095  Biso   1.000  Ir
  O78      1.0000 0.49999  0.50000  0.68570  Biso   1.000  O
  O79      1.0000 0.46795  0.17526  0.68832  Biso   1.000  O
  O80      1.0000 0.46795  0.82474  0.68832  Biso   1.000  O
  O81      1.0000 0.96795  0.32474  0.69448  Biso   1.000  O
  O82      1.0000 0.96795  0.67526  0.69448  Biso   1.000  O
  O83      1.0000 0.00000  0.00000  0.69710  Biso   1.000  O
  Ir27     1.0000 0.18034  0.17534  0.71185  Biso   1.000  Ir
  Ir28     1.0000 0.18034  0.82466  0.71185  Biso   1.000  Ir
  O84      1.0000 0.36069  0.00000  0.72660  Biso   1.000  O
  O85      1.0000 0.39274  0.32474  0.72922  Biso   1.000  O
  O86      1.0000 0.39274  0.67526  0.72922  Biso   1.000  O
  O87      1.0000 0.89273  0.17526  0.73537  Biso   1.000  O
  O88      1.0000 0.89273  0.82474  0.73537  Biso   1.000  O
  O89      1.0000 0.86069  0.50000  0.73799  Biso   1.000  O
  Ir29     1.0000 0.68034  0.32466  0.75274  Biso   1.000  Ir
  Ir30     1.0000 0.68034  0.67535  0.75274  Biso   1.000  Ir
  O90      1.0000 0.49999  0.50000  0.76749  Biso   1.000  O
  O91      1.0000 0.46795  0.17526  0.77011  Biso   1.000  O
  O92      1.0000 0.46795  0.82474  0.77011  Biso   1.000  O
  O93      1.0000 0.96795  0.32474  0.77627  Biso   1.000  O
  O94      1.0000 0.96795  0.67526  0.77627  Biso   1.000  O
  O95      1.0000 0.00000  0.00000  0.77889  Biso   1.000  O
  Ir31     1.0000 0.18034  0.17534  0.79364  Biso   1.000  Ir
  Ir32     1.0000 0.18034  0.82466  0.79364  Biso   1.000  Ir
  O96      1.0000 0.36069  0.00000  0.80839  Biso   1.000  O
  O97      1.0000 0.39274  0.32474  0.81101  Biso   1.000  O
  O98      1.0000 0.39274  0.67526  0.81101  Biso   1.000  O
  O99      1.0000 0.89273  0.17526  0.81716  Biso   1.000  O
  O100     1.0000 0.89273  0.82474  0.81716  Biso   1.000  O
  O101     1.0000 0.86069  0.50000  0.81978  Biso   1.000  O
  Ir33     1.0000 0.68034  0.32466  0.83453  Biso   1.000  Ir
  Ir34     1.0000 0.68034  0.67535  0.83453  Biso   1.000  Ir
  O102     1.0000 0.49999  0.50000  0.84928  Biso   1.000  O
  O103     1.0000 0.46795  0.17526  0.85190  Biso   1.000  O
  O104     1.0000 0.46795  0.82474  0.85190  Biso   1.000  O
  O105     1.0000 0.96795  0.32474  0.85805  Biso   1.000  O
  O106     1.0000 0.96795  0.67526  0.85805  Biso   1.000  O
