data_image0
_cell_length_a       8.45769
_cell_length_b       4.88305
_cell_length_c       27.9135
_cell_angle_alpha    90
_cell_angle_beta     90
_cell_angle_gamma    90

_symmetry_space_group_name_H-M    "P 1"
_symmetry_int_tables_number       1

loop_
  _symmetry_equiv_pos_as_xyz
  'x, y, z'

loop_
  _atom_site_label
  _atom_site_occupancy
  _atom_site_fract_x
  _atom_site_fract_y
  _atom_site_fract_z
  _atom_site_thermal_displace_type
  _atom_site_B_iso_or_equiv
  _atom_site_type_symbol
  Ir1      1.0000 0.66976  0.07533  0.53895  Biso   1.000  Ir
  Ir2      1.0000 0.16979  0.57924  0.53838  Biso   1.000  Ir
  Ir3      1.0000 0.00309  0.07715  0.38434  Biso   1.000  Ir
  Ir4      1.0000 0.50309  0.57715  0.38434  Biso   1.000  Ir
  Ir5      1.0000 0.33890  0.07175  0.70128  Biso   1.000  Ir
  Ir6      1.0000 0.84305  0.60108  0.69804  Biso   1.000  Ir
  Ir7      1.0000 0.66976  0.07715  0.30723  Biso   1.000  Ir
  Ir8      1.0000 0.16976  0.57715  0.30723  Biso   1.000  Ir
  Ir9      1.0000 0.49967  0.57108  0.61687  Biso   1.000  Ir
  Ir10     1.0000 0.00332  0.08494  0.61661  Biso   1.000  Ir
  Ir11     1.0000 0.33642  0.07715  0.46144  Biso   1.000  Ir
  Ir12     1.0000 0.83642  0.57715  0.46144  Biso   1.000  Ir
  O1       1.0000 0.65978  0.39954  0.57769  Biso   1.000  O
  O2       1.0000 0.15843  0.90333  0.57726  Biso   1.000  O
  O3       1.0000 0.49692  0.90430  0.42290  Biso   1.000  O
  O4       1.0000 0.99691  0.40430  0.42290  Biso   1.000  O
  O5       1.0000 0.33024  0.40430  0.26869  Biso   1.000  O
  O6       1.0000 0.83024  0.90430  0.26869  Biso   1.000  O
  O7       1.0000 0.48312  0.23868  0.65360  Biso   1.000  O
  O8       1.0000 0.99871  0.75237  0.65455  Biso   1.000  O
  O9       1.0000 0.33024  0.75000  0.49999  Biso   1.000  O
  O10      1.0000 0.83024  0.25000  0.49999  Biso   1.000  O
  O11      1.0000 0.66357  0.75000  0.34578  Biso   1.000  O
  O12      1.0000 0.16356  0.25000  0.34578  Biso   1.000  O
  O13      1.0000 0.51118  0.89612  0.57749  Biso   1.000  O
  O14      1.0000 0.00816  0.40446  0.57681  Biso   1.000  O
  O15      1.0000 0.34261  0.40430  0.42290  Biso   1.000  O
  O16      1.0000 0.84261  0.90430  0.42290  Biso   1.000  O
  O17      1.0000 0.17593  0.90430  0.26869  Biso   1.000  O
  O18      1.0000 0.67594  0.40430  0.26869  Biso   1.000  O
  O19      1.0000 0.34662  0.75140  0.65579  Biso   1.000  O
  O20      1.0000 0.84345  0.25310  0.65270  Biso   1.000  O
  O21      1.0000 0.17595  0.25000  0.49999  Biso   1.000  O
  O22      1.0000 0.67594  0.75000  0.49999  Biso   1.000  O
  O23      1.0000 0.50927  0.25000  0.34578  Biso   1.000  O
  O24      1.0000 0.00927  0.75000  0.34578  Biso   1.000  O
  O25      1.0000 0.83892  0.92578  0.57675  Biso   1.000  O
  O26      1.0000 0.33547  0.42450  0.57724  Biso   1.000  O
  O27      1.0000 0.16976  0.92284  0.42290  Biso   1.000  O
  O28      1.0000 0.66976  0.42284  0.42290  Biso   1.000  O
  O29      1.0000 0.50309  0.92284  0.26869  Biso   1.000  O
  O30      1.0000 0.00309  0.42284  0.26869  Biso   1.000  O
  O31      1.0000 0.16794  0.22769  0.65364  Biso   1.000  O
  O32      1.0000 0.66708  0.69826  0.65727  Biso   1.000  O
  O33      1.0000 0.50309  0.23144  0.49999  Biso   1.000  O
  O34      1.0000 0.00309  0.73144  0.49999  Biso   1.000  O
  O35      1.0000 0.83642  0.23144  0.34578  Biso   1.000  O
  O36      1.0000 0.33642  0.73144  0.34578  Biso   1.000  O
  O37      1.0000 0.33015  0.39620  0.72942  Biso   1.000  O
  O38      1.0000 0.82797  0.90754  0.73109  Biso   1.000  O
  O39      1.0000 0.17535  0.91172  0.72822  Biso   1.000  O
  O40      1.0000 0.68104  0.40678  0.73508  Biso   1.000  O
  O41      1.0000 0.49681  0.92332  0.73392  Biso   1.000  O
  O42      1.0000 0.99100  0.41240  0.72820  Biso   1.000  O
  O43      1.0000 0.72673  0.36267  0.78290  Biso   1.000  O
  H1       1.0000 0.66734  0.19250  0.78940  Biso   1.000  H
