data_image0
_cell_length_a       9.3927
_cell_length_b       8.72335
_cell_length_c       27.0937
_cell_angle_alpha    90
_cell_angle_beta     90
_cell_angle_gamma    90

_symmetry_space_group_name_H-M    "P 1"
_symmetry_int_tables_number       1

loop_
  _symmetry_equiv_pos_as_xyz
  'x, y, z'

loop_
  _atom_site_label
  _atom_site_occupancy
  _atom_site_fract_x
  _atom_site_fract_y
  _atom_site_fract_z
  _atom_site_thermal_displace_type
  _atom_site_B_iso_or_equiv
  _atom_site_type_symbol
  O1       1.0000 0.19637  0.32474  0.27682  Biso   1.000  O
  O2       1.0000 0.19637  0.67526  0.27682  Biso   1.000  O
  O3       1.0000 0.44636  0.17526  0.28985  Biso   1.000  O
  O4       1.0000 0.44636  0.82474  0.28985  Biso   1.000  O
  O5       1.0000 0.43034  0.50000  0.29540  Biso   1.000  O
  Ir1      1.0000 0.34016  0.32466  0.32667  Biso   1.000  Ir
  Ir2      1.0000 0.34016  0.67535  0.32667  Biso   1.000  Ir
  O6       1.0000 0.24999  0.50000  0.35792  Biso   1.000  O
  O7       1.0000 0.23397  0.17526  0.36348  Biso   1.000  O
  O8       1.0000 0.23397  0.82474  0.36348  Biso   1.000  O
  O9       1.0000 0.48397  0.32474  0.37652  Biso   1.000  O
  O10      1.0000 0.48397  0.67526  0.37652  Biso   1.000  O
  O11      1.0000 0.50000  0.00000  0.38207  Biso   1.000  O
  Ir3      1.0000 0.09016  0.17534  0.41333  Biso   1.000  Ir
  Ir4      1.0000 0.09016  0.82466  0.41333  Biso   1.000  Ir
  O12      1.0000 0.18034  0.00000  0.44458  Biso   1.000  O
  O13      1.0000 0.19637  0.32474  0.45015  Biso   1.000  O
  O14      1.0000 0.19637  0.67526  0.45015  Biso   1.000  O
  O15      1.0000 0.44636  0.17526  0.46318  Biso   1.000  O
  O16      1.0000 0.44636  0.82474  0.46318  Biso   1.000  O
  O17      1.0000 0.43034  0.50000  0.46873  Biso   1.000  O
  Ir5      1.0000 0.34016  0.32466  0.50000  Biso   1.000  Ir
  Ir6      1.0000 0.34016  0.67535  0.50000  Biso   1.000  Ir
  O18      1.0000 0.24999  0.50000  0.53127  Biso   1.000  O
  O19      1.0000 0.23397  0.17526  0.53682  Biso   1.000  O
  O20      1.0000 0.23397  0.82474  0.53682  Biso   1.000  O
  O21      1.0000 0.48397  0.32474  0.54985  Biso   1.000  O
  O22      1.0000 0.48397  0.67526  0.54985  Biso   1.000  O
  O23      1.0000 0.50000  0.00000  0.55540  Biso   1.000  O
  Ir7      1.0000 0.09016  0.17534  0.58667  Biso   1.000  Ir
  Ir8      1.0000 0.09016  0.82466  0.58667  Biso   1.000  Ir
  O24      1.0000 0.18034  0.00000  0.61793  Biso   1.000  O
  O25      1.0000 0.19637  0.32474  0.62348  Biso   1.000  O
  O26      1.0000 0.19637  0.67526  0.62348  Biso   1.000  O
  O27      1.0000 0.44636  0.17526  0.63652  Biso   1.000  O
  O28      1.0000 0.44636  0.82474  0.63652  Biso   1.000  O
  O29      1.0000 0.43034  0.50000  0.64207  Biso   1.000  O
  Ir9      1.0000 0.34016  0.32466  0.67333  Biso   1.000  Ir
  Ir10     1.0000 0.34016  0.67535  0.67333  Biso   1.000  Ir
  O30      1.0000 0.24999  0.50000  0.70460  Biso   1.000  O
  O31      1.0000 0.23397  0.17526  0.71015  Biso   1.000  O
  O32      1.0000 0.23397  0.82474  0.71015  Biso   1.000  O
  O33      1.0000 0.48397  0.32474  0.72318  Biso   1.000  O
  O34      1.0000 0.48397  0.67526  0.72318  Biso   1.000  O
  O35      1.0000 0.69637  0.32474  0.27682  Biso   1.000  O
  O36      1.0000 0.69637  0.67526  0.27682  Biso   1.000  O
  O37      1.0000 0.94636  0.17526  0.28985  Biso   1.000  O
  O38      1.0000 0.94636  0.82474  0.28985  Biso   1.000  O
  O39      1.0000 0.93034  0.50000  0.29540  Biso   1.000  O
  Ir11     1.0000 0.84017  0.32466  0.32667  Biso   1.000  Ir
  Ir12     1.0000 0.84017  0.67535  0.32667  Biso   1.000  Ir
  O40      1.0000 0.74999  0.50000  0.35792  Biso   1.000  O
  O41      1.0000 0.73397  0.17526  0.36348  Biso   1.000  O
  O42      1.0000 0.73397  0.82474  0.36348  Biso   1.000  O
  O43      1.0000 0.98397  0.32474  0.37652  Biso   1.000  O
  O44      1.0000 0.98397  0.67526  0.37652  Biso   1.000  O
  O45      1.0000 1.00000  0.00000  0.38207  Biso   1.000  O
  Ir13     1.0000 0.59016  0.17534  0.41333  Biso   1.000  Ir
  Ir14     1.0000 0.59016  0.82466  0.41333  Biso   1.000  Ir
  O46      1.0000 0.68034  0.00000  0.44458  Biso   1.000  O
  O47      1.0000 0.69637  0.32474  0.45015  Biso   1.000  O
  O48      1.0000 0.69637  0.67526  0.45015  Biso   1.000  O
  O49      1.0000 0.94636  0.17526  0.46318  Biso   1.000  O
  O50      1.0000 0.94636  0.82474  0.46318  Biso   1.000  O
  O51      1.0000 0.93034  0.50000  0.46873  Biso   1.000  O
  Ir15     1.0000 0.84017  0.32466  0.50000  Biso   1.000  Ir
  Ir16     1.0000 0.84017  0.67535  0.50000  Biso   1.000  Ir
  O52      1.0000 0.74999  0.50000  0.53127  Biso   1.000  O
  O53      1.0000 0.73397  0.17526  0.53682  Biso   1.000  O
  O54      1.0000 0.73397  0.82474  0.53682  Biso   1.000  O
  O55      1.0000 0.98397  0.32474  0.54985  Biso   1.000  O
  O56      1.0000 0.98397  0.67526  0.54985  Biso   1.000  O
  O57      1.0000 1.00000  0.00000  0.55540  Biso   1.000  O
  Ir17     1.0000 0.59016  0.17534  0.58667  Biso   1.000  Ir
  Ir18     1.0000 0.59016  0.82466  0.58667  Biso   1.000  Ir
  O58      1.0000 0.68034  0.00000  0.61793  Biso   1.000  O
  O59      1.0000 0.69637  0.32474  0.62348  Biso   1.000  O
  O60      1.0000 0.69637  0.67526  0.62348  Biso   1.000  O
  O61      1.0000 0.94636  0.17526  0.63652  Biso   1.000  O
  O62      1.0000 0.94636  0.82474  0.63652  Biso   1.000  O
  O63      1.0000 0.93034  0.50000  0.64207  Biso   1.000  O
  Ir19     1.0000 0.84017  0.32466  0.67333  Biso   1.000  Ir
  Ir20     1.0000 0.84017  0.67535  0.67333  Biso   1.000  Ir
  O64      1.0000 0.74999  0.50000  0.70460  Biso   1.000  O
  O65      1.0000 0.73397  0.17526  0.71015  Biso   1.000  O
  O66      1.0000 0.73397  0.82474  0.71015  Biso   1.000  O
  O67      1.0000 0.98397  0.32474  0.72318  Biso   1.000  O
  O68      1.0000 0.98397  0.67526  0.72318  Biso   1.000  O
