data_image0
_cell_length_a       6.3788
_cell_length_b       9.08
_cell_length_c       26.3501
_cell_angle_alpha    90
_cell_angle_beta     90
_cell_angle_gamma    90

_symmetry_space_group_name_H-M    "P 1"
_symmetry_int_tables_number       1

loop_
  _symmetry_equiv_pos_as_xyz
  'x, y, z'

loop_
  _atom_site_label
  _atom_site_occupancy
  _atom_site_fract_x
  _atom_site_fract_y
  _atom_site_fract_z
  _atom_site_thermal_displace_type
  _atom_site_B_iso_or_equiv
  _atom_site_type_symbol
  O1       1.0000 0.25000  0.05000  0.28463  Biso   1.000  O
  O2       1.0000 0.25000  0.25000  0.35355  Biso   1.000  O
  O3       1.0000 0.00000  0.00000  0.37077  Biso   1.000  O
  O4       1.0000 0.00000  0.30000  0.43969  Biso   1.000  O
  O5       1.0000 0.25000  0.05000  0.45691  Biso   1.000  O
  O6       1.0000 0.25000  0.25000  0.52583  Biso   1.000  O
  O7       1.0000 0.00000  0.00000  0.54307  Biso   1.000  O
  O8       1.0000 0.99867  0.31231  0.61037  Biso   1.000  O
  O9       1.0000 0.25486  0.06216  0.63040  Biso   1.000  O
  O10      1.0000 0.25124  0.26244  0.69120  Biso   1.000  O
  O11      1.0000 0.01427  0.00971  0.71586  Biso   1.000  O
  O12      1.0000 0.25000  0.55000  0.28463  Biso   1.000  O
  O13      1.0000 0.25000  0.75000  0.35355  Biso   1.000  O
  O14      1.0000 0.00000  0.50000  0.37077  Biso   1.000  O
  O15      1.0000 0.00000  0.80000  0.43969  Biso   1.000  O
  O16      1.0000 0.25000  0.55000  0.45691  Biso   1.000  O
  O17      1.0000 0.25000  0.75000  0.52583  Biso   1.000  O
  O18      1.0000 0.00000  0.50000  0.54307  Biso   1.000  O
  O19      1.0000 0.99933  0.81236  0.61036  Biso   1.000  O
  O20      1.0000 0.24355  0.56412  0.62988  Biso   1.000  O
  O21      1.0000 0.24384  0.75332  0.69479  Biso   1.000  O
  O22      1.0000 0.00048  0.50900  0.71560  Biso   1.000  O
  O23      1.0000 0.75000  0.05000  0.28463  Biso   1.000  O
  O24      1.0000 0.75000  0.25000  0.35355  Biso   1.000  O
  O25      1.0000 0.50000  0.00000  0.37077  Biso   1.000  O
  O26      1.0000 0.50000  0.30000  0.43969  Biso   1.000  O
  O27      1.0000 0.75000  0.05000  0.45691  Biso   1.000  O
  O28      1.0000 0.75000  0.25000  0.52583  Biso   1.000  O
  O29      1.0000 0.50000  0.00000  0.54307  Biso   1.000  O
  O30      1.0000 0.50165  0.30978  0.60975  Biso   1.000  O
  O31      1.0000 0.75520  0.06164  0.63142  Biso   1.000  O
  O32      1.0000 0.75905  0.25045  0.69620  Biso   1.000  O
  O33      1.0000 0.46668  0.02907  0.72068  Biso   1.000  O
  O34      1.0000 0.75000  0.55000  0.28463  Biso   1.000  O
  O35      1.0000 0.75000  0.75000  0.35355  Biso   1.000  O
  O36      1.0000 0.50000  0.50000  0.37077  Biso   1.000  O
  O37      1.0000 0.50000  0.80000  0.43969  Biso   1.000  O
  O38      1.0000 0.75000  0.55000  0.45691  Biso   1.000  O
  O39      1.0000 0.75000  0.75000  0.52583  Biso   1.000  O
  O40      1.0000 0.50000  0.50000  0.54307  Biso   1.000  O
  O41      1.0000 0.49937  0.81285  0.61039  Biso   1.000  O
  O42      1.0000 0.74322  0.56326  0.63008  Biso   1.000  O
  O43      1.0000 0.74567  0.75142  0.69442  Biso   1.000  O
  O44      1.0000 0.49888  0.50798  0.71484  Biso   1.000  O
  O45      1.0000 0.62913  0.01467  0.75697  Biso   1.000  O
  Ir1      1.0000 0.00000  0.15000  0.31909  Biso   1.000  Ir
  Ir2      1.0000 0.25000  0.40000  0.40523  Biso   1.000  Ir
  Ir3      1.0000 0.00000  0.15000  0.49137  Biso   1.000  Ir
  Ir4      1.0000 0.24893  0.40724  0.57760  Biso   1.000  Ir
  Ir5      1.0000 0.00722  0.15692  0.66446  Biso   1.000  Ir
  Ir6      1.0000 0.00000  0.65000  0.31909  Biso   1.000  Ir
  Ir7      1.0000 0.25000  0.90000  0.40523  Biso   1.000  Ir
  Ir8      1.0000 0.00000  0.65000  0.49137  Biso   1.000  Ir
  Ir9      1.0000 0.25039  0.90770  0.57755  Biso   1.000  Ir
  Ir10     1.0000 0.99166  0.65787  0.66408  Biso   1.000  Ir
  Ir11     1.0000 0.50000  0.15000  0.31909  Biso   1.000  Ir
  Ir12     1.0000 0.75000  0.40000  0.40523  Biso   1.000  Ir
  Ir13     1.0000 0.50000  0.15000  0.49137  Biso   1.000  Ir
  Ir14     1.0000 0.74959  0.40812  0.57759  Biso   1.000  Ir
  Ir15     1.0000 0.50653  0.16023  0.66420  Biso   1.000  Ir
  Ir16     1.0000 0.50000  0.65000  0.31909  Biso   1.000  Ir
  Ir17     1.0000 0.75000  0.90000  0.40523  Biso   1.000  Ir
  Ir18     1.0000 0.50000  0.65000  0.49137  Biso   1.000  Ir
  Ir19     1.0000 0.75037  0.90794  0.57763  Biso   1.000  Ir
  Ir20     1.0000 0.49330  0.65911  0.66395  Biso   1.000  Ir
  H1       1.0000 0.36150  0.45756  0.71714  Biso   1.000  H
  H2       1.0000 0.13301  0.93957  0.71171  Biso   1.000  H
  H3       1.0000 0.86699  0.45356  0.71775  Biso   1.000  H
  H4       1.0000 0.54695  0.97637  0.78570  Biso   1.000  H
