data_image0
_cell_length_a       6.64164
_cell_length_b       8.72335
_cell_length_c       41.3688
_cell_angle_alpha    90
_cell_angle_beta     90
_cell_angle_gamma    90

loop_
  _atom_site_label
  _atom_site_occupancy
  _atom_site_fract_x
  _atom_site_fract_y
  _atom_site_fract_z
  _atom_site_thermal_displace_type
  _atom_site_B_iso_or_equiv
  _atom_site_type_symbol
  O1       1.0000 0.28761  0.17526  0.19338  Biso   1.000  O
  O2       1.0000 0.71239  0.17526  0.19338  Biso   1.000  O
  Ir1      1.0000 0.00000  0.17534  0.19338  Biso   1.000  Ir
  Ir2      1.0000 0.50000  0.32465  0.19338  Biso   1.000  Ir
  O3       1.0000 0.31965  0.50000  0.19338  Biso   1.000  O
  O4       1.0000 0.68035  0.50000  0.19338  Biso   1.000  O
  Ir3      1.0000 0.50000  0.67534  0.19338  Biso   1.000  Ir
  Ir4      1.0000 0.00000  0.82466  0.19338  Biso   1.000  Ir
  O5       1.0000 0.28761  0.82474  0.19338  Biso   1.000  O
  O6       1.0000 0.71239  0.82474  0.19338  Biso   1.000  O
  O7       1.0000 0.00000  0.00000  0.22234  Biso   1.000  O
  O8       1.0000 0.00000  0.32474  0.22748  Biso   1.000  O
  O9       1.0000 0.00000  0.67526  0.22748  Biso   1.000  O
  O10      1.0000 0.50000  0.32474  0.23956  Biso   1.000  O
  O11      1.0000 0.50000  0.67526  0.23956  Biso   1.000  O
  O12      1.0000 0.50000  0.00000  0.24470  Biso   1.000  O
  O13      1.0000 0.21239  0.17526  0.27366  Biso   1.000  O
  O14      1.0000 0.78761  0.17526  0.27366  Biso   1.000  O
  Ir5      1.0000 0.50000  0.17534  0.27366  Biso   1.000  Ir
  Ir6      1.0000 0.00000  0.32465  0.27366  Biso   1.000  Ir
  O15      1.0000 0.18035  0.50000  0.27366  Biso   1.000  O
  O16      1.0000 0.81965  0.50000  0.27366  Biso   1.000  O
  Ir7      1.0000 0.00000  0.67534  0.27366  Biso   1.000  Ir
  Ir8      1.0000 0.50000  0.82466  0.27366  Biso   1.000  Ir
  O17      1.0000 0.21239  0.82474  0.27366  Biso   1.000  O
  O18      1.0000 0.78761  0.82474  0.27366  Biso   1.000  O
  O19      1.0000 0.50000  0.00000  0.30261  Biso   1.000  O
  O20      1.0000 0.50000  0.32474  0.30776  Biso   1.000  O
  O21      1.0000 0.50000  0.67526  0.30776  Biso   1.000  O
  O22      1.0000 0.00000  0.32474  0.31983  Biso   1.000  O
  O23      1.0000 0.00000  0.67526  0.31983  Biso   1.000  O
  O24      1.0000 0.00000  0.00000  0.32498  Biso   1.000  O
  O25      1.0000 0.28761  0.17526  0.35393  Biso   1.000  O
  O26      1.0000 0.71239  0.17526  0.35393  Biso   1.000  O
  Ir9      1.0000 0.00000  0.17534  0.35393  Biso   1.000  Ir
  Ir10     1.0000 0.50000  0.32465  0.35393  Biso   1.000  Ir
  O27      1.0000 0.28761  0.82474  0.35393  Biso   1.000  O
  O28      1.0000 0.31965  0.50000  0.35393  Biso   1.000  O
  O29      1.0000 0.68035  0.50000  0.35393  Biso   1.000  O
  Ir11     1.0000 0.50000  0.67534  0.35393  Biso   1.000  Ir
  Ir12     1.0000 0.00000  0.82466  0.35393  Biso   1.000  Ir
  O30      1.0000 0.71239  0.82474  0.35393  Biso   1.000  O
  O31      1.0000 0.00000  0.00000  0.38288  Biso   1.000  O
  O32      1.0000 0.00000  0.32474  0.38803  Biso   1.000  O
  O33      1.0000 0.00000  0.67526  0.38803  Biso   1.000  O
  O34      1.0000 0.50000  0.32474  0.40010  Biso   1.000  O
  O35      1.0000 0.50000  0.67526  0.40010  Biso   1.000  O
  O36      1.0000 0.50000  0.00000  0.40525  Biso   1.000  O
  O37      1.0000 0.21239  0.17526  0.43420  Biso   1.000  O
  O38      1.0000 0.78761  0.17526  0.43420  Biso   1.000  O
  Ir13     1.0000 0.50000  0.17534  0.43420  Biso   1.000  Ir
  Ir14     1.0000 0.00000  0.32465  0.43420  Biso   1.000  Ir
  O39      1.0000 0.18035  0.50000  0.43420  Biso   1.000  O
  O40      1.0000 0.81965  0.50000  0.43420  Biso   1.000  O
  Ir15     1.0000 0.00000  0.67534  0.43420  Biso   1.000  Ir
  O41      1.0000 0.78761  0.82474  0.43420  Biso   1.000  O
  Ir16     1.0000 0.50000  0.82466  0.43420  Biso   1.000  Ir
  O42      1.0000 0.21239  0.82474  0.43420  Biso   1.000  O
  O43      1.0000 0.50000  0.00000  0.46316  Biso   1.000  O
  O44      1.0000 0.50000  0.32474  0.46830  Biso   1.000  O
  O45      1.0000 0.50000  0.67526  0.46830  Biso   1.000  O
  O46      1.0000 0.00000  0.32474  0.48038  Biso   1.000  O
  O47      1.0000 0.00000  0.67526  0.48038  Biso   1.000  O
  O48      1.0000 0.00000  0.00000  0.48552  Biso   1.000  O
  O49      1.0000 0.28761  0.17526  0.51448  Biso   1.000  O
  O50      1.0000 0.71239  0.17526  0.51448  Biso   1.000  O
  Ir17     1.0000 0.00000  0.17534  0.51448  Biso   1.000  Ir
  Ir18     1.0000 0.50000  0.32465  0.51448  Biso   1.000  Ir
  O51      1.0000 0.31965  0.50000  0.51448  Biso   1.000  O
  O52      1.0000 0.68035  0.50000  0.51448  Biso   1.000  O
  Ir19     1.0000 0.50000  0.67534  0.51448  Biso   1.000  Ir
  Ir20     1.0000 0.00000  0.82466  0.51448  Biso   1.000  Ir
  O53      1.0000 0.28761  0.82474  0.51448  Biso   1.000  O
  O54      1.0000 0.71239  0.82474  0.51448  Biso   1.000  O
  O55      1.0000 0.00000  0.00000  0.54343  Biso   1.000  O
  O56      1.0000 0.00000  0.32474  0.54858  Biso   1.000  O
  O57      1.0000 0.00000  0.67526  0.54858  Biso   1.000  O
  O58      1.0000 0.50000  0.32474  0.56065  Biso   1.000  O
  O59      1.0000 0.50000  0.67526  0.56065  Biso   1.000  O
  O60      1.0000 0.50000  0.00000  0.56580  Biso   1.000  O
  O61      1.0000 0.21239  0.17526  0.59475  Biso   1.000  O
  O62      1.0000 0.78761  0.17526  0.59475  Biso   1.000  O
  Ir21     1.0000 0.50000  0.17534  0.59475  Biso   1.000  Ir
  Ir22     1.0000 0.00000  0.32465  0.59475  Biso   1.000  Ir
  O63      1.0000 0.18035  0.50000  0.59475  Biso   1.000  O
  O64      1.0000 0.81965  0.50000  0.59475  Biso   1.000  O
  Ir23     1.0000 0.00000  0.67534  0.59475  Biso   1.000  Ir
  Ir24     1.0000 0.50000  0.82466  0.59475  Biso   1.000  Ir
  O65      1.0000 0.21239  0.82474  0.59475  Biso   1.000  O
  O66      1.0000 0.78761  0.82474  0.59475  Biso   1.000  O
  O67      1.0000 0.50000  0.00000  0.62370  Biso   1.000  O
  O68      1.0000 0.50000  0.32474  0.62885  Biso   1.000  O
  O69      1.0000 0.50000  0.67526  0.62885  Biso   1.000  O
  O70      1.0000 0.00000  0.32474  0.64093  Biso   1.000  O
  O71      1.0000 0.00000  0.67526  0.64093  Biso   1.000  O
  O72      1.0000 0.00000  0.00000  0.64607  Biso   1.000  O
  O73      1.0000 0.28761  0.17526  0.67502  Biso   1.000  O
  O74      1.0000 0.71239  0.17526  0.67502  Biso   1.000  O
  Ir25     1.0000 0.00000  0.17534  0.67502  Biso   1.000  Ir
  Ir26     1.0000 0.50000  0.32465  0.67502  Biso   1.000  Ir
  O75      1.0000 0.31965  0.50000  0.67502  Biso   1.000  O
  O76      1.0000 0.68035  0.50000  0.67502  Biso   1.000  O
  Ir27     1.0000 0.50000  0.67534  0.67502  Biso   1.000  Ir
  Ir28     1.0000 0.00000  0.82466  0.67502  Biso   1.000  Ir
  O77      1.0000 0.28761  0.82474  0.67502  Biso   1.000  O
  O78      1.0000 0.71239  0.82474  0.67502  Biso   1.000  O
  O79      1.0000 0.00000  0.00000  0.70398  Biso   1.000  O
  O80      1.0000 0.00000  0.32474  0.70912  Biso   1.000  O
  O81      1.0000 0.00000  0.67526  0.70912  Biso   1.000  O
  O82      1.0000 0.50000  0.32474  0.72120  Biso   1.000  O
  O83      1.0000 0.50000  0.67526  0.72120  Biso   1.000  O
  O84      1.0000 0.50000  0.00000  0.72634  Biso   1.000  O
  O85      1.0000 0.21239  0.17526  0.75530  Biso   1.000  O
  O86      1.0000 0.78761  0.17526  0.75530  Biso   1.000  O
  Ir29     1.0000 0.50000  0.17534  0.75530  Biso   1.000  Ir
  Ir30     1.0000 0.00000  0.32465  0.75530  Biso   1.000  Ir
  O87      1.0000 0.18035  0.50000  0.75530  Biso   1.000  O
  O88      1.0000 0.81965  0.50000  0.75530  Biso   1.000  O
  Ir31     1.0000 0.00000  0.67534  0.75530  Biso   1.000  Ir
  Ir32     1.0000 0.50000  0.82466  0.75530  Biso   1.000  Ir
  O89      1.0000 0.21239  0.82474  0.75530  Biso   1.000  O
  O90      1.0000 0.78761  0.82474  0.75530  Biso   1.000  O
  O91      1.0000 0.50000  0.00000  0.78425  Biso   1.000  O
  O92      1.0000 0.50000  0.32474  0.78940  Biso   1.000  O
  O93      1.0000 0.50000  0.67526  0.78940  Biso   1.000  O
  O94      1.0000 0.00000  0.32474  0.80147  Biso   1.000  O
  O95      1.0000 0.00000  0.67526  0.80147  Biso   1.000  O
  O96      1.0000 0.00000  0.00000  0.80662  Biso   1.000  O
