data_image0
_cell_length_a       6.3788
_cell_length_b       9.08
_cell_length_c       26.3501
_cell_angle_alpha    90
_cell_angle_beta     90
_cell_angle_gamma    90

_symmetry_space_group_name_H-M    "P 1"
_symmetry_int_tables_number       1

loop_
  _symmetry_equiv_pos_as_xyz
  'x, y, z'

loop_
  _atom_site_label
  _atom_site_occupancy
  _atom_site_fract_x
  _atom_site_fract_y
  _atom_site_fract_z
  _atom_site_thermal_displace_type
  _atom_site_B_iso_or_equiv
  _atom_site_type_symbol
  O1       1.0000 0.25000  0.05000  0.28463  Biso   1.000  O
  O2       1.0000 0.25000  0.25000  0.35355  Biso   1.000  O
  O3       1.0000 0.00000  0.00000  0.37077  Biso   1.000  O
  O4       1.0000 0.00000  0.30000  0.43969  Biso   1.000  O
  O5       1.0000 0.25000  0.05000  0.45691  Biso   1.000  O
  O6       1.0000 0.25000  0.25000  0.52583  Biso   1.000  O
  O7       1.0000 0.00000  0.00000  0.54307  Biso   1.000  O
  O8       1.0000 0.00070  0.31110  0.61003  Biso   1.000  O
  O9       1.0000 0.25089  0.06529  0.63002  Biso   1.000  O
  O10      1.0000 0.24652  0.25835  0.69385  Biso   1.000  O
  O11      1.0000 0.01314  0.01573  0.71491  Biso   1.000  O
  O12      1.0000 0.25000  0.55000  0.28463  Biso   1.000  O
  O13      1.0000 0.25000  0.75000  0.35355  Biso   1.000  O
  O14      1.0000 0.00000  0.50000  0.37077  Biso   1.000  O
  O15      1.0000 0.00000  0.80000  0.43969  Biso   1.000  O
  O16      1.0000 0.25000  0.55000  0.45691  Biso   1.000  O
  O17      1.0000 0.25000  0.75000  0.52583  Biso   1.000  O
  O18      1.0000 0.00000  0.50000  0.54307  Biso   1.000  O
  O19      1.0000 0.00057  0.81194  0.61041  Biso   1.000  O
  O20      1.0000 0.24987  0.56457  0.62955  Biso   1.000  O
  O21      1.0000 0.25199  0.75978  0.69160  Biso   1.000  O
  O22      1.0000 0.00402  0.51885  0.71517  Biso   1.000  O
  O23      1.0000 0.75000  0.05000  0.28463  Biso   1.000  O
  O24      1.0000 0.75000  0.25000  0.35355  Biso   1.000  O
  O25      1.0000 0.50000  0.00000  0.37077  Biso   1.000  O
  O26      1.0000 0.50000  0.30000  0.43969  Biso   1.000  O
  O27      1.0000 0.75000  0.05000  0.45691  Biso   1.000  O
  O28      1.0000 0.75000  0.25000  0.52583  Biso   1.000  O
  O29      1.0000 0.50000  0.00000  0.54307  Biso   1.000  O
  O30      1.0000 0.50027  0.31164  0.60946  Biso   1.000  O
  O31      1.0000 0.75090  0.06223  0.63075  Biso   1.000  O
  O32      1.0000 0.75915  0.26209  0.69173  Biso   1.000  O
  O33      1.0000 0.52134  0.03853  0.72261  Biso   1.000  O
  O34      1.0000 0.75000  0.55000  0.28463  Biso   1.000  O
  O35      1.0000 0.75000  0.75000  0.35355  Biso   1.000  O
  O36      1.0000 0.50000  0.50000  0.37077  Biso   1.000  O
  O37      1.0000 0.50000  0.80000  0.43969  Biso   1.000  O
  O38      1.0000 0.75000  0.55000  0.45691  Biso   1.000  O
  O39      1.0000 0.75000  0.75000  0.52583  Biso   1.000  O
  O40      1.0000 0.50000  0.50000  0.54307  Biso   1.000  O
  O41      1.0000 0.50076  0.81152  0.61031  Biso   1.000  O
  O42      1.0000 0.75153  0.56448  0.62965  Biso   1.000  O
  O43      1.0000 0.74975  0.75866  0.69201  Biso   1.000  O
  O44      1.0000 0.49982  0.51441  0.71376  Biso   1.000  O
  O45      1.0000 0.36228  0.00235  0.75377  Biso   1.000  O
  Ir1      1.0000 0.00000  0.15000  0.31909  Biso   1.000  Ir
  Ir2      1.0000 0.25000  0.40000  0.40523  Biso   1.000  Ir
  Ir3      1.0000 0.00000  0.15000  0.49137  Biso   1.000  Ir
  Ir4      1.0000 0.24951  0.40776  0.57725  Biso   1.000  Ir
  Ir5      1.0000 0.00040  0.15501  0.66613  Biso   1.000  Ir
  Ir6      1.0000 0.00000  0.65000  0.31909  Biso   1.000  Ir
  Ir7      1.0000 0.25000  0.90000  0.40523  Biso   1.000  Ir
  Ir8      1.0000 0.00000  0.65000  0.49137  Biso   1.000  Ir
  Ir9      1.0000 0.25029  0.90767  0.57755  Biso   1.000  Ir
  Ir10     1.0000 0.00056  0.65306  0.66658  Biso   1.000  Ir
  Ir11     1.0000 0.50000  0.15000  0.31909  Biso   1.000  Ir
  Ir12     1.0000 0.75000  0.40000  0.40523  Biso   1.000  Ir
  Ir13     1.0000 0.50000  0.15000  0.49137  Biso   1.000  Ir
  Ir14     1.0000 0.75118  0.40773  0.57719  Biso   1.000  Ir
  Ir15     1.0000 0.49986  0.16288  0.66413  Biso   1.000  Ir
  Ir16     1.0000 0.50000  0.65000  0.31909  Biso   1.000  Ir
  Ir17     1.0000 0.75000  0.90000  0.40523  Biso   1.000  Ir
  Ir18     1.0000 0.50000  0.65000  0.49137  Biso   1.000  Ir
  Ir19     1.0000 0.75049  0.90770  0.57763  Biso   1.000  Ir
  Ir20     1.0000 0.50097  0.65231  0.66641  Biso   1.000  Ir
  H1       1.0000 0.20656  0.00809  0.73457  Biso   1.000  H
