data_image0
_cell_length_a       6.3788
_cell_length_b       9.08
_cell_length_c       26.3501
_cell_angle_alpha    90
_cell_angle_beta     90
_cell_angle_gamma    90

_symmetry_space_group_name_H-M    "P 1"
_symmetry_int_tables_number       1

loop_
  _symmetry_equiv_pos_as_xyz
  'x, y, z'

loop_
  _atom_site_label
  _atom_site_occupancy
  _atom_site_fract_x
  _atom_site_fract_y
  _atom_site_fract_z
  _atom_site_thermal_displace_type
  _atom_site_B_iso_or_equiv
  _atom_site_type_symbol
  O1       1.0000 0.25000  0.05000  0.28463  Biso   1.000  O
  O2       1.0000 0.25000  0.25000  0.35355  Biso   1.000  O
  O3       1.0000 0.00000  0.00000  0.37077  Biso   1.000  O
  O4       1.0000 0.00000  0.30000  0.43969  Biso   1.000  O
  O5       1.0000 0.25000  0.05000  0.45691  Biso   1.000  O
  O6       1.0000 0.25000  0.25000  0.52583  Biso   1.000  O
  O7       1.0000 0.00000  0.00000  0.54307  Biso   1.000  O
  O8       1.0000 0.99977  0.31070  0.61033  Biso   1.000  O
  O9       1.0000 0.24793  0.06499  0.62944  Biso   1.000  O
  O10      1.0000 0.24398  0.25953  0.69227  Biso   1.000  O
  O11      1.0000 0.00842  0.01145  0.71400  Biso   1.000  O
  O12      1.0000 0.25000  0.55000  0.28463  Biso   1.000  O
  O13      1.0000 0.25000  0.75000  0.35355  Biso   1.000  O
  O14      1.0000 0.00000  0.50000  0.37077  Biso   1.000  O
  O15      1.0000 0.00000  0.80000  0.43969  Biso   1.000  O
  O16      1.0000 0.25000  0.55000  0.45691  Biso   1.000  O
  O17      1.0000 0.25000  0.75000  0.52583  Biso   1.000  O
  O18      1.0000 0.00000  0.50000  0.54307  Biso   1.000  O
  O19      1.0000 0.00061  0.81232  0.61050  Biso   1.000  O
  O20      1.0000 0.25045  0.56603  0.62923  Biso   1.000  O
  O21      1.0000 0.25217  0.75873  0.69255  Biso   1.000  O
  O22      1.0000 0.00144  0.51509  0.71380  Biso   1.000  O
  O23      1.0000 0.75000  0.05000  0.28463  Biso   1.000  O
  O24      1.0000 0.75000  0.25000  0.35355  Biso   1.000  O
  O25      1.0000 0.50000  0.00000  0.37077  Biso   1.000  O
  O26      1.0000 0.50000  0.30000  0.43969  Biso   1.000  O
  O27      1.0000 0.75000  0.05000  0.45691  Biso   1.000  O
  O28      1.0000 0.75000  0.25000  0.52583  Biso   1.000  O
  O29      1.0000 0.50000  0.00000  0.54307  Biso   1.000  O
  O30      1.0000 0.50036  0.31323  0.60981  Biso   1.000  O
  O31      1.0000 0.74782  0.06416  0.63011  Biso   1.000  O
  O32      1.0000 0.75452  0.25602  0.69305  Biso   1.000  O
  O33      1.0000 0.49864  0.02093  0.71742  Biso   1.000  O
  O34      1.0000 0.75000  0.55000  0.28463  Biso   1.000  O
  O35      1.0000 0.75000  0.75000  0.35355  Biso   1.000  O
  O36      1.0000 0.50000  0.50000  0.37077  Biso   1.000  O
  O37      1.0000 0.50000  0.80000  0.43969  Biso   1.000  O
  O38      1.0000 0.75000  0.55000  0.45691  Biso   1.000  O
  O39      1.0000 0.75000  0.75000  0.52583  Biso   1.000  O
  O40      1.0000 0.50000  0.50000  0.54307  Biso   1.000  O
  O41      1.0000 0.50005  0.81181  0.61037  Biso   1.000  O
  O42      1.0000 0.75156  0.56543  0.62943  Biso   1.000  O
  O43      1.0000 0.75059  0.75860  0.69208  Biso   1.000  O
  O44      1.0000 0.50000  0.51446  0.71360  Biso   1.000  O
  Ir1      1.0000 0.00000  0.15000  0.31909  Biso   1.000  Ir
  Ir2      1.0000 0.25000  0.40000  0.40523  Biso   1.000  Ir
  Ir3      1.0000 0.00000  0.15000  0.49137  Biso   1.000  Ir
  Ir4      1.0000 0.24940  0.40733  0.57729  Biso   1.000  Ir
  Ir5      1.0000 0.99780  0.15041  0.66747  Biso   1.000  Ir
  Ir6      1.0000 0.00000  0.65000  0.31909  Biso   1.000  Ir
  Ir7      1.0000 0.25000  0.90000  0.40523  Biso   1.000  Ir
  Ir8      1.0000 0.00000  0.65000  0.49137  Biso   1.000  Ir
  Ir9      1.0000 0.24951  0.90769  0.57746  Biso   1.000  Ir
  Ir10     1.0000 0.00068  0.65321  0.66653  Biso   1.000  Ir
  Ir11     1.0000 0.50000  0.15000  0.31909  Biso   1.000  Ir
  Ir12     1.0000 0.75000  0.40000  0.40523  Biso   1.000  Ir
  Ir13     1.0000 0.50000  0.15000  0.49137  Biso   1.000  Ir
  Ir14     1.0000 0.75089  0.40780  0.57728  Biso   1.000  Ir
  Ir15     1.0000 0.49712  0.16265  0.66353  Biso   1.000  Ir
  Ir16     1.0000 0.50000  0.65000  0.31909  Biso   1.000  Ir
  Ir17     1.0000 0.75000  0.90000  0.40523  Biso   1.000  Ir
  Ir18     1.0000 0.50000  0.65000  0.49137  Biso   1.000  Ir
  Ir19     1.0000 0.75032  0.90778  0.57757  Biso   1.000  Ir
  Ir20     1.0000 0.50120  0.65282  0.66643  Biso   1.000  Ir
  H1       1.0000 0.35767  0.97928  0.72269  Biso   1.000  H
