data_image0
_cell_length_a       4.88305
_cell_length_b       5.1456
_cell_length_c       32.6885
_cell_angle_alpha    90
_cell_angle_beta     90
_cell_angle_gamma    90

_symmetry_space_group_name_H-M    "P 1"
_symmetry_int_tables_number       1

loop_
  _symmetry_equiv_pos_as_xyz
  'x, y, z'

loop_
  _atom_site_label
  _atom_site_occupancy
  _atom_site_fract_x
  _atom_site_fract_y
  _atom_site_fract_z
  _atom_site_thermal_displace_type
  _atom_site_B_iso_or_equiv
  _atom_site_type_symbol
  O1       1.0000 0.80860  0.09667  0.22944  Biso   1.000  O
  O2       1.0000 0.00000  0.59667  0.22944  Biso   1.000  O
  O3       1.0000 0.48147  0.75233  0.26686  Biso   1.000  O
  O4       1.0000 0.32717  0.25234  0.26686  Biso   1.000  O
  Ir1      1.0000 0.65431  0.07181  0.28355  Biso   1.000  Ir
  Ir2      1.0000 0.15431  0.57181  0.28355  Biso   1.000  Ir
  O5       1.0000 0.82717  0.39129  0.30025  Biso   1.000  O
  O6       1.0000 0.98147  0.89129  0.30026  Biso   1.000  O
  O7       1.0000 0.50000  0.04695  0.33767  Biso   1.000  O
  O8       1.0000 0.30860  0.54695  0.33767  Biso   1.000  O
  O9       1.0000 0.98147  0.20261  0.37509  Biso   1.000  O
  O10      1.0000 0.82717  0.70262  0.37509  Biso   1.000  O
  Ir3      1.0000 0.65431  0.02209  0.39178  Biso   1.000  Ir
  Ir4      1.0000 0.15431  0.52209  0.39178  Biso   1.000  Ir
  O11      1.0000 0.32716  0.84156  0.40847  Biso   1.000  O
  O12      1.0000 0.48147  0.34157  0.40847  Biso   1.000  O
  O13      1.0000 0.00000  0.49723  0.44590  Biso   1.000  O
  O14      1.0000 0.80860  0.99723  0.44590  Biso   1.000  O
  O15      1.0000 0.48147  0.65288  0.48330  Biso   1.000  O
  O16      1.0000 0.32717  0.15289  0.48330  Biso   1.000  O
  Ir5      1.0000 0.15431  0.47237  0.50001  Biso   1.000  Ir
  Ir6      1.0000 0.65431  0.97237  0.50001  Biso   1.000  Ir
  O17      1.0000 0.82717  0.29184  0.51670  Biso   1.000  O
  O18      1.0000 0.98147  0.79185  0.51670  Biso   1.000  O
  O19      1.0000 0.30860  0.44751  0.55410  Biso   1.000  O
  O20      1.0000 0.50000  0.94751  0.55410  Biso   1.000  O
  O21      1.0000 0.98147  0.10316  0.59153  Biso   1.000  O
  O22      1.0000 0.82717  0.60317  0.59153  Biso   1.000  O
  Ir7      1.0000 0.15431  0.42264  0.60822  Biso   1.000  Ir
  Ir8      1.0000 0.65431  0.92264  0.60822  Biso   1.000  Ir
  O23      1.0000 0.32716  0.74212  0.62493  Biso   1.000  O
  O24      1.0000 0.48147  0.24213  0.62493  Biso   1.000  O
  O25      1.0000 0.00000  0.39778  0.66233  Biso   1.000  O
  O26      1.0000 0.80860  0.89778  0.66233  Biso   1.000  O
  O27      1.0000 0.48147  0.55344  0.69975  Biso   1.000  O
  O28      1.0000 0.32716  0.05345  0.69975  Biso   1.000  O
  Ir9      1.0000 0.15431  0.37292  0.71645  Biso   1.000  Ir
  Ir10     1.0000 0.65431  0.87292  0.71645  Biso   1.000  Ir
  O29      1.0000 0.82716  0.19239  0.73314  Biso   1.000  O
  O30      1.0000 0.98147  0.69240  0.73314  Biso   1.000  O
  O31      1.0000 0.30860  0.34806  0.77056  Biso   1.000  O
  O32      1.0000 0.50000  0.84806  0.77056  Biso   1.000  O
