data_image0
_cell_length_a       4.88305
_cell_length_b       5.1456
_cell_length_c       53.9142
_cell_angle_alpha    90
_cell_angle_beta     90
_cell_angle_gamma    90

_symmetry_space_group_name_H-M    "P 1"
_symmetry_int_tables_number       1

loop_
  _symmetry_equiv_pos_as_xyz
  'x, y, z'

loop_
  _atom_site_label
  _atom_site_occupancy
  _atom_site_fract_x
  _atom_site_fract_y
  _atom_site_fract_z
  _atom_site_thermal_displace_type
  _atom_site_B_iso_or_equiv
  _atom_site_type_symbol
  O1       1.0000 0.80860  0.09667  0.13911  Biso   1.000  O
  O2       1.0000 0.00000  0.59667  0.13911  Biso   1.000  O
  O3       1.0000 0.48147  0.75233  0.16180  Biso   1.000  O
  O4       1.0000 0.32717  0.25234  0.16180  Biso   1.000  O
  Ir1      1.0000 0.65431  0.07181  0.17192  Biso   1.000  Ir
  Ir2      1.0000 0.15431  0.57181  0.17192  Biso   1.000  Ir
  O5       1.0000 0.82717  0.39129  0.18204  Biso   1.000  O
  O6       1.0000 0.98147  0.89129  0.18205  Biso   1.000  O
  O7       1.0000 0.50000  0.04695  0.20473  Biso   1.000  O
  O8       1.0000 0.30860  0.54695  0.20473  Biso   1.000  O
  O9       1.0000 0.98147  0.20261  0.22742  Biso   1.000  O
  O10      1.0000 0.82717  0.70262  0.22742  Biso   1.000  O
  Ir3      1.0000 0.65431  0.02209  0.23754  Biso   1.000  Ir
  Ir4      1.0000 0.15431  0.52209  0.23754  Biso   1.000  Ir
  O11      1.0000 0.32716  0.84156  0.24766  Biso   1.000  O
  O12      1.0000 0.48147  0.34157  0.24766  Biso   1.000  O
  O13      1.0000 0.00000  0.49723  0.27035  Biso   1.000  O
  O14      1.0000 0.80860  0.99723  0.27035  Biso   1.000  O
  O15      1.0000 0.48147  0.65288  0.29303  Biso   1.000  O
  O16      1.0000 0.32717  0.15289  0.29303  Biso   1.000  O
  Ir5      1.0000 0.15431  0.47237  0.30316  Biso   1.000  Ir
  Ir6      1.0000 0.65431  0.97237  0.30316  Biso   1.000  Ir
  O17      1.0000 0.82717  0.29184  0.31328  Biso   1.000  O
  O18      1.0000 0.98147  0.79185  0.31328  Biso   1.000  O
  O19      1.0000 0.30860  0.44751  0.33596  Biso   1.000  O
  O20      1.0000 0.50000  0.94751  0.33596  Biso   1.000  O
  O21      1.0000 0.98147  0.10316  0.35865  Biso   1.000  O
  O22      1.0000 0.82717  0.60317  0.35865  Biso   1.000  O
  Ir7      1.0000 0.15431  0.42264  0.36877  Biso   1.000  Ir
  Ir8      1.0000 0.65431  0.92264  0.36877  Biso   1.000  Ir
  O23      1.0000 0.32716  0.74212  0.37890  Biso   1.000  O
  O24      1.0000 0.48147  0.24213  0.37890  Biso   1.000  O
  O25      1.0000 0.00000  0.39778  0.40158  Biso   1.000  O
  O26      1.0000 0.80860  0.89778  0.40158  Biso   1.000  O
  O27      1.0000 0.48147  0.55344  0.42426  Biso   1.000  O
  O28      1.0000 0.32716  0.05345  0.42426  Biso   1.000  O
  Ir9      1.0000 0.15431  0.37292  0.43439  Biso   1.000  Ir
  Ir10     1.0000 0.65431  0.87292  0.43439  Biso   1.000  Ir
  O29      1.0000 0.82716  0.19239  0.44451  Biso   1.000  O
  O30      1.0000 0.98147  0.69240  0.44451  Biso   1.000  O
  O31      1.0000 0.30860  0.34806  0.46720  Biso   1.000  O
  O32      1.0000 0.50000  0.84806  0.46720  Biso   1.000  O
  O33      1.0000 0.98147  0.00372  0.48987  Biso   1.000  O
  O34      1.0000 0.82717  0.50373  0.48988  Biso   1.000  O
  Ir11     1.0000 0.15431  0.32320  0.50001  Biso   1.000  Ir
  Ir12     1.0000 0.65431  0.82320  0.50001  Biso   1.000  Ir
  O35      1.0000 0.32716  0.64267  0.51013  Biso   1.000  O
  O36      1.0000 0.48147  0.14268  0.51013  Biso   1.000  O
  O37      1.0000 0.00000  0.29834  0.53282  Biso   1.000  O
  O38      1.0000 0.80860  0.79834  0.53282  Biso   1.000  O
  O39      1.0000 0.48146  0.45399  0.55549  Biso   1.000  O
  O40      1.0000 0.32717  0.95400  0.55549  Biso   1.000  O
  Ir13     1.0000 0.15431  0.27348  0.56561  Biso   1.000  Ir
  Ir14     1.0000 0.65431  0.77348  0.56561  Biso   1.000  Ir
  O41      1.0000 0.82716  0.09295  0.57575  Biso   1.000  O
  O42      1.0000 0.98147  0.59296  0.57575  Biso   1.000  O
  O43      1.0000 0.30860  0.24861  0.59842  Biso   1.000  O
  O44      1.0000 0.50000  0.74861  0.59842  Biso   1.000  O
  O45      1.0000 0.98147  0.90427  0.62111  Biso   1.000  O
  O46      1.0000 0.82716  0.40428  0.62111  Biso   1.000  O
  Ir15     1.0000 0.15431  0.22375  0.63123  Biso   1.000  Ir
  Ir16     1.0000 0.65431  0.72375  0.63123  Biso   1.000  Ir
  O47      1.0000 0.32717  0.54323  0.64135  Biso   1.000  O
  O48      1.0000 0.48146  0.04324  0.64137  Biso   1.000  O
  O49      1.0000 0.00000  0.19889  0.66404  Biso   1.000  O
  O50      1.0000 0.80860  0.69889  0.66404  Biso   1.000  O
  O51      1.0000 0.48147  0.35455  0.68673  Biso   1.000  O
  O52      1.0000 0.32717  0.85456  0.68673  Biso   1.000  O
  Ir17     1.0000 0.15431  0.17403  0.69685  Biso   1.000  Ir
  Ir18     1.0000 0.65431  0.67403  0.69685  Biso   1.000  Ir
  O53      1.0000 0.82717  0.99350  0.70697  Biso   1.000  O
  O54      1.0000 0.98147  0.49351  0.70697  Biso   1.000  O
  O55      1.0000 0.30860  0.14917  0.72966  Biso   1.000  O
  O56      1.0000 0.50000  0.64917  0.72966  Biso   1.000  O
  O57      1.0000 0.98147  0.80482  0.75234  Biso   1.000  O
  O58      1.0000 0.82717  0.30483  0.75234  Biso   1.000  O
  Ir19     1.0000 0.15431  0.12431  0.76247  Biso   1.000  Ir
  Ir20     1.0000 0.65431  0.62431  0.76247  Biso   1.000  Ir
  O59      1.0000 0.32716  0.44378  0.77259  Biso   1.000  O
  O60      1.0000 0.48147  0.94379  0.77259  Biso   1.000  O
  O61      1.0000 0.00000  0.09945  0.79527  Biso   1.000  O
  O62      1.0000 0.80860  0.59945  0.79527  Biso   1.000  O
  O63      1.0000 0.48147  0.25510  0.81796  Biso   1.000  O
  O64      1.0000 0.32717  0.75511  0.81796  Biso   1.000  O
  Ir21     1.0000 0.15431  0.07458  0.82808  Biso   1.000  Ir
  Ir22     1.0000 0.65431  0.57458  0.82808  Biso   1.000  Ir
  O65      1.0000 0.82716  0.89406  0.83820  Biso   1.000  O
  O66      1.0000 0.98147  0.39407  0.83821  Biso   1.000  O
  O67      1.0000 0.30860  0.04972  0.86089  Biso   1.000  O
  O68      1.0000 0.50000  0.54972  0.86089  Biso   1.000  O
