data_image0
_cell_length_a       3.1894
_cell_length_b       4.54
_cell_length_c       44.9639
_cell_angle_alpha    90
_cell_angle_beta     90
_cell_angle_gamma    90

_symmetry_space_group_name_H-M    "P 1"
_symmetry_int_tables_number       1

loop_
  _symmetry_equiv_pos_as_xyz
  'x, y, z'

loop_
  _atom_site_label
  _atom_site_occupancy
  _atom_site_fract_x
  _atom_site_fract_y
  _atom_site_fract_z
  _atom_site_thermal_displace_type
  _atom_site_B_iso_or_equiv
  _atom_site_type_symbol
  O1       1.0000 0.00000  0.60000  0.16680  Biso   1.000  O
  O2       1.0000 0.50000  0.10000  0.17690  Biso   1.000  O
  Ir1      1.0000 0.00000  0.30000  0.19709  Biso   1.000  Ir
  O3       1.0000 0.50000  0.50000  0.21728  Biso   1.000  O
  O4       1.0000 0.00000  0.00000  0.22738  Biso   1.000  O
  Ir2      1.0000 0.50000  0.80000  0.24757  Biso   1.000  Ir
  O5       1.0000 0.00000  0.60000  0.26776  Biso   1.000  O
  O6       1.0000 0.50000  0.10000  0.27786  Biso   1.000  O
  Ir3      1.0000 0.00000  0.30000  0.29806  Biso   1.000  Ir
  O7       1.0000 0.50000  0.50000  0.31826  Biso   1.000  O
  O8       1.0000 0.00000  0.00000  0.32835  Biso   1.000  O
  Ir4      1.0000 0.50000  0.80000  0.34854  Biso   1.000  Ir
  O9       1.0000 0.00000  0.60000  0.36874  Biso   1.000  O
  O10      1.0000 0.50000  0.10000  0.37883  Biso   1.000  O
  Ir5      1.0000 0.00000  0.30000  0.39903  Biso   1.000  Ir
  O11      1.0000 0.50000  0.50000  0.41922  Biso   1.000  O
  O12      1.0000 0.00000  0.00000  0.42931  Biso   1.000  O
  Ir6      1.0000 0.50000  0.80000  0.44951  Biso   1.000  Ir
  O13      1.0000 0.00000  0.60000  0.46971  Biso   1.000  O
  O14      1.0000 0.50000  0.10000  0.47981  Biso   1.000  O
  Ir7      1.0000 0.00000  0.30000  0.50000  Biso   1.000  Ir
  O15      1.0000 0.50000  0.50000  0.52019  Biso   1.000  O
  O16      1.0000 0.00000  0.00000  0.53029  Biso   1.000  O
  Ir8      1.0000 0.50000  0.80000  0.55048  Biso   1.000  Ir
  O17      1.0000 0.00000  0.60000  0.57067  Biso   1.000  O
  O18      1.0000 0.50000  0.10000  0.58077  Biso   1.000  O
  Ir9      1.0000 0.00000  0.30000  0.60096  Biso   1.000  Ir
  O19      1.0000 0.50000  0.50000  0.62116  Biso   1.000  O
  O20      1.0000 0.00000  0.00000  0.63126  Biso   1.000  O
  Ir10     1.0000 0.50000  0.80000  0.65146  Biso   1.000  Ir
  O21      1.0000 0.00000  0.60000  0.67165  Biso   1.000  O
  O22      1.0000 0.50000  0.10000  0.68174  Biso   1.000  O
  Ir11     1.0000 0.00000  0.30000  0.70194  Biso   1.000  Ir
  O23      1.0000 0.50000  0.50000  0.72213  Biso   1.000  O
  O24      1.0000 0.00000  0.00000  0.73223  Biso   1.000  O
  Ir12     1.0000 0.50000  0.80000  0.75242  Biso   1.000  Ir
  O25      1.0000 0.00000  0.60000  0.77261  Biso   1.000  O
  O26      1.0000 0.50000  0.10000  0.78271  Biso   1.000  O
  Ir13     1.0000 0.00000  0.30000  0.80291  Biso   1.000  Ir
  O27      1.0000 0.50000  0.50000  0.82310  Biso   1.000  O
  O28      1.0000 0.00000  0.00000  0.83320  Biso   1.000  O
