data_image0
_cell_length_a       6.3788
_cell_length_b       6.42053
_cell_length_c       27.8409
_cell_angle_alpha    90
_cell_angle_beta     90
_cell_angle_gamma    90

_symmetry_space_group_name_H-M    "P 1"
_symmetry_int_tables_number       1

loop_
  _symmetry_equiv_pos_as_xyz
  'x, y, z'

loop_
  _atom_site_label
  _atom_site_occupancy
  _atom_site_fract_x
  _atom_site_fract_y
  _atom_site_fract_z
  _atom_site_thermal_displace_type
  _atom_site_B_iso_or_equiv
  _atom_site_type_symbol
  O1       1.0000 0.00000  0.50000  0.26939  Biso   1.000  O
  O2       1.0000 0.25000  0.20000  0.31552  Biso   1.000  O
  O3       1.0000 0.25000  0.80000  0.31552  Biso   1.000  O
  O4       1.0000 0.00000  0.50000  0.36163  Biso   1.000  O
  O5       1.0000 0.00000  0.00000  0.38469  Biso   1.000  O
  O6       1.0000 0.25000  0.30000  0.43081  Biso   1.000  O
  O7       1.0000 0.25000  0.70000  0.43081  Biso   1.000  O
  O8       1.0000 0.00000  0.00000  0.47694  Biso   1.000  O
  O9       1.0000 0.00000  0.50000  0.50000  Biso   1.000  O
  O10      1.0000 0.24998  0.19105  0.54686  Biso   1.000  O
  O11      1.0000 0.24997  0.80743  0.54662  Biso   1.000  O
  O12      1.0000 0.00000  0.49963  0.59001  Biso   1.000  O
  O13      1.0000 0.00000  0.99526  0.61785  Biso   1.000  O
  O14      1.0000 0.25058  0.30675  0.66015  Biso   1.000  O
  O15      1.0000 0.25125  0.68997  0.66113  Biso   1.000  O
  O16      1.0000 0.00000  0.99955  0.70446  Biso   1.000  O
  O17      1.0000 0.00000  0.49620  0.72888  Biso   1.000  O
  O18      1.0000 0.50000  0.50000  0.26939  Biso   1.000  O
  O19      1.0000 0.75000  0.20000  0.31552  Biso   1.000  O
  O20      1.0000 0.75000  0.80000  0.31552  Biso   1.000  O
  O21      1.0000 0.50000  0.50000  0.36163  Biso   1.000  O
  O22      1.0000 0.50000  0.00000  0.38469  Biso   1.000  O
  O23      1.0000 0.75000  0.30000  0.43081  Biso   1.000  O
  O24      1.0000 0.75000  0.70000  0.43081  Biso   1.000  O
  O25      1.0000 0.50000  0.00000  0.47694  Biso   1.000  O
  O26      1.0000 0.50000  0.50000  0.50000  Biso   1.000  O
  O27      1.0000 0.75002  0.19105  0.54686  Biso   1.000  O
  O28      1.0000 0.75003  0.80743  0.54662  Biso   1.000  O
  O29      1.0000 0.50000  0.50061  0.58925  Biso   1.000  O
  O30      1.0000 0.50000  0.99633  0.61811  Biso   1.000  O
  O31      1.0000 0.74942  0.30675  0.66015  Biso   1.000  O
  O32      1.0000 0.74875  0.68997  0.66113  Biso   1.000  O
  O33      1.0000 0.50000  0.00773  0.70487  Biso   1.000  O
  O34      1.0000 0.50000  0.50371  0.73213  Biso   1.000  O
  Ir1      1.0000 0.00000  0.00000  0.31552  Biso   1.000  Ir
  Ir2      1.0000 0.25000  0.50000  0.31552  Biso   1.000  Ir
  Ir3      1.0000 0.25000  0.00000  0.43081  Biso   1.000  Ir
  Ir4      1.0000 0.00000  0.50000  0.43081  Biso   1.000  Ir
  Ir5      1.0000 0.00000  0.99897  0.54744  Biso   1.000  Ir
  Ir6      1.0000 0.24980  0.49939  0.54514  Biso   1.000  Ir
  Ir7      1.0000 0.24971  0.99811  0.66248  Biso   1.000  Ir
  Ir8      1.0000 0.00000  0.49875  0.66443  Biso   1.000  Ir
  Ir9      1.0000 0.50000  0.00000  0.31552  Biso   1.000  Ir
  Ir10     1.0000 0.75000  0.50000  0.31552  Biso   1.000  Ir
  Ir11     1.0000 0.75000  0.00000  0.43081  Biso   1.000  Ir
  Ir12     1.0000 0.50000  0.50000  0.43081  Biso   1.000  Ir
  Ir13     1.0000 0.50000  0.99903  0.54758  Biso   1.000  Ir
  Ir14     1.0000 0.75020  0.49939  0.54514  Biso   1.000  Ir
  Ir15     1.0000 0.75029  0.99811  0.66248  Biso   1.000  Ir
  Ir16     1.0000 0.50000  0.49774  0.66253  Biso   1.000  Ir
  H1       1.0000 0.50000  0.36046  0.74458  Biso   1.000  H
