data_image0
_cell_length_a       8.61194
_cell_length_b       5.1456
_cell_length_c       27.6767
_cell_angle_alpha    90
_cell_angle_beta     90
_cell_angle_gamma    93.4064

_symmetry_space_group_name_H-M    "P 1"
_symmetry_int_tables_number       1

loop_
  _symmetry_equiv_pos_as_xyz
  'x, y, z'

loop_
  _atom_site_label
  _atom_site_occupancy
  _atom_site_fract_x
  _atom_site_fract_y
  _atom_site_fract_z
  _atom_site_thermal_displace_type
  _atom_site_B_iso_or_equiv
  _atom_site_type_symbol
  O1       1.0000 0.61912  0.78483  0.27099  Biso   1.000  O
  O2       1.0000 0.11912  0.28484  0.27099  Biso   1.000  O
  O3       1.0000 0.56935  0.27989  0.29339  Biso   1.000  O
  O4       1.0000 0.06935  0.77990  0.29339  Biso   1.000  O
  O5       1.0000 0.85329  0.11945  0.32119  Biso   1.000  O
  O6       1.0000 0.35329  0.61946  0.32119  Biso   1.000  O
  O7       1.0000 0.30350  0.11449  0.34360  Biso   1.000  O
  O8       1.0000 0.80350  0.61450  0.34360  Biso   1.000  O
  O9       1.0000 0.58087  0.93669  0.36600  Biso   1.000  O
  O10      1.0000 0.08088  0.43670  0.36600  Biso   1.000  O
  O11      1.0000 0.51913  0.43056  0.39379  Biso   1.000  O
  O12      1.0000 0.01914  0.93057  0.39379  Biso   1.000  O
  O13      1.0000 0.29648  0.75275  0.41619  Biso   1.000  O
  O14      1.0000 0.79648  0.25276  0.41619  Biso   1.000  O
  O15      1.0000 0.74670  0.74781  0.43860  Biso   1.000  O
  O16      1.0000 0.24670  0.24780  0.43860  Biso   1.000  O
  O17      1.0000 0.53065  0.08737  0.46640  Biso   1.000  O
  O18      1.0000 0.03065  0.58738  0.46640  Biso   1.000  O
  O19      1.0000 0.48087  0.58241  0.48880  Biso   1.000  O
  O20      1.0000 0.98087  0.08240  0.48880  Biso   1.000  O
  O21      1.0000 0.25869  0.90343  0.51119  Biso   1.000  O
  O22      1.0000 0.75881  0.40344  0.51110  Biso   1.000  O
  O23      1.0000 0.69629  0.89923  0.53996  Biso   1.000  O
  O24      1.0000 0.19714  0.40151  0.53913  Biso   1.000  O
  O25      1.0000 0.47110  0.21812  0.56171  Biso   1.000  O
  O26      1.0000 0.97297  0.72402  0.56047  Biso   1.000  O
  O27      1.0000 0.42249  0.70981  0.58352  Biso   1.000  O
  O28      1.0000 0.92512  0.22073  0.58414  Biso   1.000  O
  O29      1.0000 0.20736  0.05872  0.61168  Biso   1.000  O
  O30      1.0000 0.71529  0.55312  0.61222  Biso   1.000  O
  O31      1.0000 0.66162  0.06219  0.63287  Biso   1.000  O
  O32      1.0000 0.15754  0.55725  0.63356  Biso   1.000  O
  O33      1.0000 0.44021  0.36804  0.65525  Biso   1.000  O
  O34      1.0000 0.94390  0.87146  0.65434  Biso   1.000  O
  O35      1.0000 0.35881  0.83519  0.68365  Biso   1.000  O
  O36      1.0000 0.85152  0.30551  0.69167  Biso   1.000  O
  O37      1.0000 0.65474  0.69245  0.70097  Biso   1.000  O
  O38      1.0000 0.15168  0.18045  0.70359  Biso   1.000  O
  O39      1.0000 0.57667  0.18319  0.72941  Biso   1.000  O
  O40      1.0000 0.08664  0.67173  0.72838  Biso   1.000  O
  Ir1      1.0000 0.46131  0.94967  0.30728  Biso   1.000  Ir
  Ir2      1.0000 0.96133  0.44968  0.30728  Biso   1.000  Ir
  Ir3      1.0000 0.80001  0.93362  0.37989  Biso   1.000  Ir
  Ir4      1.0000 0.30001  0.43363  0.37989  Biso   1.000  Ir
  Ir5      1.0000 0.13868  0.91758  0.45249  Biso   1.000  Ir
  Ir6      1.0000 0.63868  0.41759  0.45249  Biso   1.000  Ir
  Ir7      1.0000 0.47747  0.90120  0.52568  Biso   1.000  Ir
  Ir8      1.0000 0.97810  0.40280  0.52532  Biso   1.000  Ir
  Ir9      1.0000 0.81718  0.88779  0.59818  Biso   1.000  Ir
  Ir10     1.0000 0.31201  0.38071  0.59868  Biso   1.000  Ir
  Ir11     1.0000 0.15709  0.86376  0.67958  Biso   1.000  Ir
  Ir12     1.0000 0.65952  0.38203  0.67447  Biso   1.000  Ir
  H1       1.0000 0.66315  0.11293  0.74726  Biso   1.000  H
