data_image0
_cell_length_a       9.3927
_cell_length_b       8.72335
_cell_length_c       27.0937
_cell_angle_alpha    90
_cell_angle_beta     90
_cell_angle_gamma    90

_symmetry_space_group_name_H-M    "P 1"
_symmetry_int_tables_number       1

loop_
  _symmetry_equiv_pos_as_xyz
  'x, y, z'

loop_
  _atom_site_label
  _atom_site_occupancy
  _atom_site_fract_x
  _atom_site_fract_y
  _atom_site_fract_z
  _atom_site_thermal_displace_type
  _atom_site_B_iso_or_equiv
  _atom_site_type_symbol
  O1       1.0000 0.19637  0.32474  0.27682  Biso   1.000  O
  O2       1.0000 0.19637  0.67526  0.27682  Biso   1.000  O
  O3       1.0000 0.44636  0.17526  0.28985  Biso   1.000  O
  O4       1.0000 0.44636  0.82474  0.28985  Biso   1.000  O
  O5       1.0000 0.43034  0.50000  0.29540  Biso   1.000  O
  O6       1.0000 0.24999  0.50000  0.35792  Biso   1.000  O
  O7       1.0000 0.23397  0.17526  0.36348  Biso   1.000  O
  O8       1.0000 0.23397  0.82474  0.36348  Biso   1.000  O
  O9       1.0000 0.48397  0.32474  0.37652  Biso   1.000  O
  O10      1.0000 0.48397  0.67526  0.37652  Biso   1.000  O
  O11      1.0000 0.50000  0.00000  0.38207  Biso   1.000  O
  O12      1.0000 0.18034  0.00000  0.44458  Biso   1.000  O
  O13      1.0000 0.19637  0.32474  0.45015  Biso   1.000  O
  O14      1.0000 0.19637  0.67526  0.45015  Biso   1.000  O
  O15      1.0000 0.44636  0.17526  0.46318  Biso   1.000  O
  O16      1.0000 0.44636  0.82474  0.46318  Biso   1.000  O
  O17      1.0000 0.43034  0.50000  0.46873  Biso   1.000  O
  O18      1.0000 0.24999  0.50000  0.53127  Biso   1.000  O
  O19      1.0000 0.23397  0.17526  0.53682  Biso   1.000  O
  O20      1.0000 0.23397  0.82474  0.53682  Biso   1.000  O
  O21      1.0000 0.48471  0.32751  0.54965  Biso   1.000  O
  O22      1.0000 0.48109  0.67281  0.55073  Biso   1.000  O
  O23      1.0000 0.49650  0.99826  0.55424  Biso   1.000  O
  O24      1.0000 0.17609  0.99701  0.61867  Biso   1.000  O
  O25      1.0000 0.18104  0.32288  0.62797  Biso   1.000  O
  O26      1.0000 0.21275  0.67989  0.62259  Biso   1.000  O
  O27      1.0000 0.43583  0.17827  0.63392  Biso   1.000  O
  O28      1.0000 0.45144  0.82292  0.63990  Biso   1.000  O
  O29      1.0000 0.44404  0.49795  0.64841  Biso   1.000  O
  O30      1.0000 0.24204  0.51026  0.70254  Biso   1.000  O
  O31      1.0000 0.36629  0.24917  0.72670  Biso   1.000  O
  O32      1.0000 0.21294  0.81188  0.70981  Biso   1.000  O
  O33      1.0000 0.47473  0.68630  0.72595  Biso   1.000  O
  O34      1.0000 0.69637  0.32474  0.27682  Biso   1.000  O
  O35      1.0000 0.69637  0.67526  0.27682  Biso   1.000  O
  O36      1.0000 0.94636  0.17526  0.28985  Biso   1.000  O
  O37      1.0000 0.94636  0.82474  0.28985  Biso   1.000  O
  O38      1.0000 0.93034  0.50000  0.29540  Biso   1.000  O
  O39      1.0000 0.74999  0.50000  0.35792  Biso   1.000  O
  O40      1.0000 0.73397  0.17526  0.36348  Biso   1.000  O
  O41      1.0000 0.73397  0.82474  0.36348  Biso   1.000  O
  O42      1.0000 0.98397  0.32474  0.37652  Biso   1.000  O
  O43      1.0000 0.98397  0.67526  0.37652  Biso   1.000  O
  O44      1.0000 0.00000  0.00000  0.38207  Biso   1.000  O
  O45      1.0000 0.68034  0.00000  0.44458  Biso   1.000  O
  O46      1.0000 0.69637  0.32474  0.45015  Biso   1.000  O
  O47      1.0000 0.69637  0.67526  0.45015  Biso   1.000  O
  O48      1.0000 0.94636  0.17526  0.46318  Biso   1.000  O
  O49      1.0000 0.94636  0.82474  0.46318  Biso   1.000  O
  O50      1.0000 0.93034  0.50000  0.46873  Biso   1.000  O
  O51      1.0000 0.74999  0.50000  0.53127  Biso   1.000  O
  O52      1.0000 0.73397  0.17526  0.53682  Biso   1.000  O
  O53      1.0000 0.73397  0.82474  0.53682  Biso   1.000  O
  O54      1.0000 0.98444  0.32436  0.54969  Biso   1.000  O
  O55      1.0000 0.98262  0.67153  0.55105  Biso   1.000  O
  O56      1.0000 0.99831  0.99033  0.55483  Biso   1.000  O
  O57      1.0000 0.67598  0.99766  0.61869  Biso   1.000  O
  O58      1.0000 0.69257  0.32075  0.62577  Biso   1.000  O
  O59      1.0000 0.69500  0.66492  0.62204  Biso   1.000  O
  O60      1.0000 0.93661  0.17297  0.63318  Biso   1.000  O
  O61      1.0000 0.95605  0.81601  0.64090  Biso   1.000  O
  O62      1.0000 0.94065  0.51064  0.64509  Biso   1.000  O
  O63      1.0000 0.74985  0.50657  0.70239  Biso   1.000  O
  O64      1.0000 0.91303  0.26949  0.72413  Biso   1.000  O
  O65      1.0000 0.76924  0.79626  0.72547  Biso   1.000  O
  Ir1      1.0000 0.34016  0.32466  0.32667  Biso   1.000  Ir
  Ir2      1.0000 0.34016  0.67535  0.32667  Biso   1.000  Ir
  Ir3      1.0000 0.09016  0.17534  0.41333  Biso   1.000  Ir
  Ir4      1.0000 0.09016  0.82466  0.41333  Biso   1.000  Ir
  Ir5      1.0000 0.34016  0.32466  0.50000  Biso   1.000  Ir
  Ir6      1.0000 0.34016  0.67535  0.50000  Biso   1.000  Ir
  Ir7      1.0000 0.08594  0.16634  0.58527  Biso   1.000  Ir
  Ir8      1.0000 0.09487  0.81697  0.58641  Biso   1.000  Ir
  Ir9      1.0000 0.33542  0.33593  0.66975  Biso   1.000  Ir
  Ir10     1.0000 0.33961  0.69377  0.68029  Biso   1.000  Ir
  Ir11     1.0000 0.84017  0.32466  0.32667  Biso   1.000  Ir
  Ir12     1.0000 0.84017  0.67535  0.32667  Biso   1.000  Ir
  Ir13     1.0000 0.59016  0.17534  0.41333  Biso   1.000  Ir
  Ir14     1.0000 0.59016  0.82466  0.41333  Biso   1.000  Ir
  Ir15     1.0000 0.84017  0.32466  0.50000  Biso   1.000  Ir
  Ir16     1.0000 0.84017  0.67535  0.50000  Biso   1.000  Ir
  Ir17     1.0000 0.58590  0.17118  0.58594  Biso   1.000  Ir
  Ir18     1.0000 0.58993  0.82279  0.58606  Biso   1.000  Ir
  Ir19     1.0000 0.84514  0.33966  0.66862  Biso   1.000  Ir
  Ir20     1.0000 0.82701  0.69741  0.67378  Biso   1.000  Ir
