data_image0
_cell_length_a       4.88305
_cell_length_b       5.1456
_cell_length_c       60.7664
_cell_angle_alpha    90
_cell_angle_beta     90
_cell_angle_gamma    90

_symmetry_space_group_name_H-M    "P 1"
_symmetry_int_tables_number       1

loop_
  _symmetry_equiv_pos_as_xyz
  'x, y, z'

loop_
  _atom_site_label
  _atom_site_occupancy
  _atom_site_fract_x
  _atom_site_fract_y
  _atom_site_fract_z
  _atom_site_thermal_displace_type
  _atom_site_B_iso_or_equiv
  _atom_site_type_symbol
  O1       1.0000 0.80860  0.09667  0.16974  Biso   1.000  O
  O2       1.0000 0.00000  0.59667  0.16974  Biso   1.000  O
  O3       1.0000 0.48147  0.75233  0.18987  Biso   1.000  O
  O4       1.0000 0.32717  0.25234  0.18987  Biso   1.000  O
  Ir1      1.0000 0.65431  0.07181  0.19885  Biso   1.000  Ir
  Ir2      1.0000 0.15431  0.57181  0.19885  Biso   1.000  Ir
  O5       1.0000 0.82717  0.39129  0.20783  Biso   1.000  O
  O6       1.0000 0.98147  0.89129  0.20784  Biso   1.000  O
  O7       1.0000 0.50000  0.04695  0.22796  Biso   1.000  O
  O8       1.0000 0.30860  0.54695  0.22796  Biso   1.000  O
