data_image0
_cell_length_a       9.7661
_cell_length_b       10.2912
_cell_length_c       38.3446
_cell_angle_alpha    90
_cell_angle_beta     90
_cell_angle_gamma    61.674

_symmetry_space_group_name_H-M    "P 1"
_symmetry_int_tables_number       1

loop_
  _symmetry_equiv_pos_as_xyz
  'x, y, z'

loop_
  _atom_site_label
  _atom_site_occupancy
  _atom_site_fract_x
  _atom_site_fract_y
  _atom_site_fract_z
  _atom_site_thermal_displace_type
  _atom_site_B_iso_or_equiv
  _atom_site_type_symbol
  O1       1.0000 0.39772  0.72230  0.21470  Biso   1.000  O
  O2       1.0000 0.55843  0.41775  0.20794  Biso   1.000  O
  O3       1.0000 0.71417  0.62351  0.24491  Biso   1.000  O
  O4       1.0000 0.44421  0.37346  0.26371  Biso   1.000  O
  O5       1.0000 0.48360  0.59871  0.27862  Biso   1.000  O
  O6       1.0000 0.71459  0.31281  0.29789  Biso   1.000  O
  O7       1.0000 0.74195  0.55031  0.31462  Biso   1.000  O
  O8       1.0000 0.47695  0.28276  0.33183  Biso   1.000  O
  O9       1.0000 0.53705  0.49436  0.35100  Biso   1.000  O
  O10      1.0000 0.26136  0.72543  0.36715  Biso   1.000  O
  O11      1.0000 0.30632  0.45605  0.38392  Biso   1.000  O
  O12      1.0000 0.52748  0.67342  0.40389  Biso   1.000  O
  O13      1.0000 0.57628  0.40226  0.41981  Biso   1.000  O
  O14      1.0000 0.29876  0.63097  0.43623  Biso   1.000  O
  O15      1.0000 0.36041  0.35276  0.45648  Biso   1.000  O
  O16      1.0000 0.58156  0.58131  0.47264  Biso   1.000  O
  O17      1.0000 0.63180  0.30921  0.48877  Biso   1.000  O
  O18      1.0000 0.34864  0.53029  0.50888  Biso   1.000  O
  O19      1.0000 0.39725  0.25866  0.52516  Biso   1.000  O
  O20      1.0000 0.61972  0.48774  0.54129  Biso   1.000  O
  O21      1.0000 0.68092  0.70799  0.56132  Biso   1.000  O
  O22      1.0000 0.40345  0.43664  0.57769  Biso   1.000  O
  O23      1.0000 0.45228  0.66521  0.59394  Biso   1.000  O
  O24      1.0000 0.67365  0.38250  0.61350  Biso   1.000  O
  O25      1.0000 0.71826  0.61356  0.63017  Biso   1.000  O
  O26      1.0000 0.44178  0.34449  0.64651  Biso   1.000  O
  O27      1.0000 0.50181  0.55713  0.66537  Biso   1.000  O
  O28      1.0000 0.73331  0.28898  0.68266  Biso   1.000  O
  O29      1.0000 0.26507  0.52594  0.69924  Biso   1.000  O
  O30      1.0000 0.49652  0.73875  0.71849  Biso   1.000  O
  O31      1.0000 0.53229  0.46375  0.73350  Biso   1.000  O
  O32      1.0000 0.26723  0.71535  0.75244  Biso   1.000  O
  O33      1.0000 0.43884  0.41948  0.79206  Biso   1.000  O
  O34      1.0000 0.57580  0.62079  0.78149  Biso   1.000  O
  Ir1      1.0000 0.42597  0.55718  0.23492  Biso   1.000  Ir
  Ir2      1.0000 0.59356  0.71529  0.28857  Biso   1.000  Ir
  Ir3      1.0000 0.25805  0.38606  0.34116  Biso   1.000  Ir
  Ir4      1.0000 0.41873  0.56298  0.39361  Biso   1.000  Ir
  Ir5      1.0000 0.57987  0.74135  0.44623  Biso   1.000  Ir
  Ir6      1.0000 0.74001  0.42004  0.49882  Biso   1.000  Ir
  Ir7      1.0000 0.40019  0.59797  0.55143  Biso   1.000  Ir
  Ir8      1.0000 0.56098  0.27592  0.60393  Biso   1.000  Ir
  Ir9      1.0000 0.72160  0.45287  0.65622  Biso   1.000  Ir
  Ir10     1.0000 0.38573  0.62504  0.70831  Biso   1.000  Ir
  Ir11     1.0000 0.55554  0.28458  0.76205  Biso   1.000  Ir
