data_image0
_cell_length_a       4.88305
_cell_length_b       5.1456
_cell_length_c       38.3446
_cell_angle_alpha    90
_cell_angle_beta     90
_cell_angle_gamma    61.674

_symmetry_space_group_name_H-M    "P 1"
_symmetry_int_tables_number       1

loop_
  _symmetry_equiv_pos_as_xyz
  'x, y, z'

loop_
  _atom_site_label
  _atom_site_occupancy
  _atom_site_fract_x
  _atom_site_fract_y
  _atom_site_fract_z
  _atom_site_thermal_displace_type
  _atom_site_B_iso_or_equiv
  _atom_site_type_symbol
  O1       1.0000 0.30666  0.93153  0.21597  Biso   1.000  O
  O2       1.0000 0.62807  0.32244  0.20922  Biso   1.000  O
  O3       1.0000 0.93956  0.73395  0.24618  Biso   1.000  O
  O4       1.0000 0.39964  0.23386  0.26498  Biso   1.000  O
  O5       1.0000 0.47842  0.68436  0.27989  Biso   1.000  O
  O6       1.0000 0.94039  0.11255  0.29916  Biso   1.000  O
  O7       1.0000 0.99512  0.58756  0.31589  Biso   1.000  O
  O8       1.0000 0.46512  0.05246  0.33310  Biso   1.000  O
  O9       1.0000 0.58532  0.47564  0.35227  Biso   1.000  O
  O10      1.0000 0.03394  0.93779  0.36842  Biso   1.000  O
  O11      1.0000 0.12385  0.39904  0.38519  Biso   1.000  O
  O12      1.0000 0.56618  0.83378  0.40516  Biso   1.000  O
  O13      1.0000 0.66377  0.29145  0.42109  Biso   1.000  O
  O14      1.0000 0.10873  0.74888  0.43751  Biso   1.000  O
  O15      1.0000 0.23203  0.19244  0.45775  Biso   1.000  O
  O16      1.0000 0.67433  0.64955  0.47391  Biso   1.000  O
  O17      1.0000 0.77482  0.10536  0.49004  Biso   1.000  O
  O18      1.0000 0.20849  0.54751  0.51016  Biso   1.000  O
  O19      1.0000 0.30571  0.00424  0.52644  Biso   1.000  O
  O20      1.0000 0.75066  0.46242  0.54256  Biso   1.000  O
  O21      1.0000 0.87305  0.90292  0.56259  Biso   1.000  O
  O22      1.0000 0.31812  0.36021  0.57896  Biso   1.000  O
  O23      1.0000 0.41577  0.81735  0.59522  Biso   1.000  O
  O24      1.0000 0.85852  0.25193  0.61478  Biso   1.000  O
  O25      1.0000 0.94773  0.71405  0.63144  Biso   1.000  O
  O26      1.0000 0.39477  0.17592  0.64779  Biso   1.000  O
  O27      1.0000 0.51483  0.60119  0.66665  Biso   1.000  O
  O28      1.0000 0.97784  0.06489  0.68394  Biso   1.000  O
  O29      1.0000 0.04136  0.53881  0.70051  Biso   1.000  O
  O30      1.0000 0.50426  0.96444  0.71976  Biso   1.000  O
  O31      1.0000 0.57580  0.41443  0.73478  Biso   1.000  O
  O32      1.0000 0.04567  0.91762  0.75371  Biso   1.000  O
  O33      1.0000 0.38890  0.32589  0.79333  Biso   1.000  O
  O34      1.0000 0.66281  0.72850  0.78277  Biso   1.000  O
  Ir1      1.0000 0.36316  0.60129  0.23619  Biso   1.000  Ir
  Ir2      1.0000 0.69833  0.91751  0.28984  Biso   1.000  Ir
  Ir3      1.0000 0.02731  0.25905  0.34243  Biso   1.000  Ir
  Ir4      1.0000 0.34867  0.61290  0.39488  Biso   1.000  Ir
  Ir5      1.0000 0.67096  0.96962  0.44750  Biso   1.000  Ir
  Ir6      1.0000 0.99123  0.32702  0.50010  Biso   1.000  Ir
  Ir7      1.0000 0.31159  0.68288  0.55270  Biso   1.000  Ir
  Ir8      1.0000 0.63317  0.03876  0.60520  Biso   1.000  Ir
  Ir9      1.0000 0.95442  0.39268  0.65750  Biso   1.000  Ir
  Ir10     1.0000 0.28268  0.73701  0.70958  Biso   1.000  Ir
  Ir11     1.0000 0.62229  0.05608  0.76333  Biso   1.000  Ir
