data_image0
_cell_length_a       4.88305
_cell_length_b       4.88305
_cell_length_c       45.1318
_cell_angle_alpha    90
_cell_angle_beta     90
_cell_angle_gamma    60

_symmetry_space_group_name_H-M    "P 1"
_symmetry_int_tables_number       1

loop_
  _symmetry_equiv_pos_as_xyz
  'x, y, z'

loop_
  _atom_site_label
  _atom_site_occupancy
  _atom_site_fract_x
  _atom_site_fract_y
  _atom_site_fract_z
  _atom_site_thermal_displace_type
  _atom_site_B_iso_or_equiv
  _atom_site_type_symbol
  O1       1.0000 0.69140  0.00000  0.16618  Biso   1.000  O
  O2       1.0000 0.99998  0.34571  0.16618  Biso   1.000  O
  O3       1.0000 0.34569  0.65429  0.16618  Biso   1.000  O
  Ir1      1.0000 0.01236  0.66667  0.19002  Biso   1.000  Ir
  O4       1.0000 0.33333  0.33333  0.21387  Biso   1.000  O
  O5       1.0000 0.67902  0.67902  0.21387  Biso   1.000  O
  O6       1.0000 0.02471  0.98764  0.21387  Biso   1.000  O
  Ir2      1.0000 0.34569  0.00000  0.23771  Biso   1.000  Ir
  O7       1.0000 0.66665  0.01238  0.26155  Biso   1.000  O
  O8       1.0000 0.01236  0.32096  0.26155  Biso   1.000  O
  O9       1.0000 0.35807  0.66667  0.26155  Biso   1.000  O
  Ir3      1.0000 0.67902  0.33333  0.28540  Biso   1.000  Ir
  O10      1.0000 0.00000  0.00000  0.30924  Biso   1.000  O
  O11      1.0000 0.34569  0.34569  0.30924  Biso   1.000  O
  O12      1.0000 0.69138  0.65431  0.30924  Biso   1.000  O
  Ir4      1.0000 0.01236  0.66667  0.33308  Biso   1.000  Ir
  O13      1.0000 0.02473  0.33333  0.35693  Biso   1.000  O
  O14      1.0000 0.33331  0.67904  0.35693  Biso   1.000  O
  O15      1.0000 0.67902  0.98762  0.35693  Biso   1.000  O
  Ir5      1.0000 0.34569  0.00000  0.38077  Biso   1.000  Ir
  O16      1.0000 0.01236  0.01236  0.40461  Biso   1.000  O
  O17      1.0000 0.35805  0.32098  0.40461  Biso   1.000  O
  O18      1.0000 0.66667  0.66667  0.40461  Biso   1.000  O
  Ir6      1.0000 0.67902  0.33333  0.42846  Biso   1.000  Ir
  O19      1.0000 0.69140  0.00000  0.45230  Biso   1.000  O
  O20      1.0000 0.99998  0.34571  0.45230  Biso   1.000  O
  O21      1.0000 0.34569  0.65429  0.45230  Biso   1.000  O
  Ir7      1.0000 0.01236  0.66667  0.47614  Biso   1.000  Ir
  O22      1.0000 0.33333  0.33333  0.50000  Biso   1.000  O
  O23      1.0000 0.67902  0.67902  0.50000  Biso   1.000  O
  O24      1.0000 0.02471  0.98764  0.50000  Biso   1.000  O
  Ir8      1.0000 0.34569  0.00000  0.52384  Biso   1.000  Ir
  O25      1.0000 0.66665  0.01238  0.54769  Biso   1.000  O
  O26      1.0000 0.01236  0.32096  0.54769  Biso   1.000  O
  O27      1.0000 0.35807  0.66667  0.54769  Biso   1.000  O
  Ir9      1.0000 0.67902  0.33333  0.57153  Biso   1.000  Ir
  O28      1.0000 0.00000  0.00000  0.59537  Biso   1.000  O
  O29      1.0000 0.34569  0.34569  0.59537  Biso   1.000  O
  O30      1.0000 0.69138  0.65431  0.59537  Biso   1.000  O
  Ir10     1.0000 0.01236  0.66667  0.61922  Biso   1.000  Ir
  O31      1.0000 0.02473  0.33333  0.64306  Biso   1.000  O
  O32      1.0000 0.67902  0.98762  0.64306  Biso   1.000  O
  O33      1.0000 0.33331  0.67904  0.64306  Biso   1.000  O
  Ir11     1.0000 0.34569  0.00000  0.66690  Biso   1.000  Ir
  O34      1.0000 0.01236  0.01236  0.69075  Biso   1.000  O
  O35      1.0000 0.35805  0.32098  0.69075  Biso   1.000  O
  O36      1.0000 0.66667  0.66667  0.69075  Biso   1.000  O
  Ir12     1.0000 0.67902  0.33333  0.71459  Biso   1.000  Ir
  O37      1.0000 0.69140  0.00000  0.73843  Biso   1.000  O
  O38      1.0000 0.99998  0.34571  0.73843  Biso   1.000  O
  O39      1.0000 0.34569  0.65429  0.73843  Biso   1.000  O
  Ir13     1.0000 0.01236  0.66667  0.76228  Biso   1.000  Ir
  O40      1.0000 0.33333  0.33333  0.78612  Biso   1.000  O
  O41      1.0000 0.67902  0.67902  0.78612  Biso   1.000  O
  O42      1.0000 0.02471  0.98764  0.78612  Biso   1.000  O
  Ir14     1.0000 0.34569  0.00000  0.80996  Biso   1.000  Ir
  O43      1.0000 0.66665  0.01238  0.83382  Biso   1.000  O
  O44      1.0000 0.01236  0.32096  0.83382  Biso   1.000  O
  O45      1.0000 0.35807  0.66667  0.83382  Biso   1.000  O
