data_image0
_cell_length_a       6.64164
_cell_length_b       8.72335
_cell_length_c       51.3313
_cell_angle_alpha    90
_cell_angle_beta     90
_cell_angle_gamma    90

_symmetry_space_group_name_H-M    "P 1"
_symmetry_int_tables_number       1

loop_
  _symmetry_equiv_pos_as_xyz
  'x, y, z'

loop_
  _atom_site_label
  _atom_site_occupancy
  _atom_site_fract_x
  _atom_site_fract_y
  _atom_site_fract_z
  _atom_site_thermal_displace_type
  _atom_site_B_iso_or_equiv
  _atom_site_type_symbol
  O1       1.0000 0.50000  0.32474  0.44211  Biso   1.000  O
  O2       1.0000 0.50000  0.67526  0.44211  Biso   1.000  O
  O3       1.0000 0.00000  0.32474  0.45184  Biso   1.000  O
  O4       1.0000 0.00000  0.67526  0.45184  Biso   1.000  O
  O5       1.0000 0.00000  0.00000  0.45599  Biso   1.000  O
  O6       1.0000 0.28761  0.17526  0.47932  Biso   1.000  O
  Ir1      1.0000 0.50000  0.32465  0.47932  Biso   1.000  Ir
  O7       1.0000 0.31965  0.50000  0.47932  Biso   1.000  O
  Ir2      1.0000 0.50000  0.67534  0.47932  Biso   1.000  Ir
  O8       1.0000 0.28761  0.82474  0.47932  Biso   1.000  O
  O9       1.0000 0.71239  0.17526  0.47932  Biso   1.000  O
  Ir3      1.0000 0.00000  0.17534  0.47932  Biso   1.000  Ir
  O10      1.0000 0.68035  0.50000  0.47932  Biso   1.000  O
  Ir4      1.0000 0.00000  0.82466  0.47932  Biso   1.000  Ir
  O11      1.0000 0.71239  0.82474  0.47932  Biso   1.000  O
  O12      1.0000 0.00000  0.00000  0.50266  Biso   1.000  O
  O13      1.0000 0.00000  0.32474  0.50680  Biso   1.000  O
  O14      1.0000 0.00000  0.67526  0.50680  Biso   1.000  O
  O15      1.0000 0.50000  0.32474  0.51653  Biso   1.000  O
  O16      1.0000 0.50000  0.67526  0.51653  Biso   1.000  O
