data_image0
_cell_length_a       4.88305
_cell_length_b       5.1456
_cell_length_c       36.0029
_cell_angle_alpha    90
_cell_angle_beta     90
_cell_angle_gamma    90

_symmetry_space_group_name_H-M    "P 1"
_symmetry_int_tables_number       1

loop_
  _symmetry_equiv_pos_as_xyz
  'x, y, z'

loop_
  _atom_site_label
  _atom_site_occupancy
  _atom_site_fract_x
  _atom_site_fract_y
  _atom_site_fract_z
  _atom_site_thermal_displace_type
  _atom_site_B_iso_or_equiv
  _atom_site_type_symbol
  Ir1      1.0000 0.00000  0.47514  0.27133  Biso   1.000  Ir
  Ir2      1.0000 0.50000  0.97514  0.27133  Biso   1.000  Ir
  O1       1.0000 0.34569  0.00000  0.22220  Biso   1.000  O
  O2       1.0000 0.67285  0.65567  0.25617  Biso   1.000  O
  O3       1.0000 0.32715  0.29462  0.28650  Biso   1.000  O
  O4       1.0000 0.15429  0.50000  0.22220  Biso   1.000  O
  O5       1.0000 0.82715  0.15566  0.25617  Biso   1.000  O
  O6       1.0000 0.17285  0.79461  0.28649  Biso   1.000  O
  Ir3      1.0000 0.50000  0.92542  0.36959  Biso   1.000  Ir
  Ir4      1.0000 1.00000  0.42542  0.36959  Biso   1.000  Ir
  O7       1.0000 0.84569  0.45028  0.32046  Biso   1.000  O
  O8       1.0000 0.17285  0.10594  0.35443  Biso   1.000  O
  O9       1.0000 0.82715  0.74490  0.38476  Biso   1.000  O
  O10      1.0000 0.65429  0.95028  0.32046  Biso   1.000  O
  O11      1.0000 0.32715  0.60593  0.35443  Biso   1.000  O
  O12      1.0000 0.67285  0.24489  0.38475  Biso   1.000  O
  Ir5      1.0000 1.00000  0.37569  0.46785  Biso   1.000  Ir
  Ir6      1.0000 0.50000  0.87569  0.46785  Biso   1.000  Ir
  O13      1.0000 0.34569  0.90055  0.41872  Biso   1.000  O
  O14      1.0000 0.67285  0.55622  0.45269  Biso   1.000  O
  O15      1.0000 0.32715  0.19518  0.48302  Biso   1.000  O
  O16      1.0000 0.15429  0.40055  0.41872  Biso   1.000  O
  O17      1.0000 0.82715  0.05621  0.45269  Biso   1.000  O
  O18      1.0000 0.17285  0.69517  0.48301  Biso   1.000  O
  Ir7      1.0000 0.50000  0.82597  0.56611  Biso   1.000  Ir
  Ir8      1.0000 1.00000  0.32597  0.56611  Biso   1.000  Ir
  O19      1.0000 0.84569  0.35083  0.51698  Biso   1.000  O
  O20      1.0000 0.17285  0.00650  0.55095  Biso   1.000  O
  O21      1.0000 0.82715  0.64545  0.58128  Biso   1.000  O
  O22      1.0000 0.65429  0.85083  0.51698  Biso   1.000  O
  O23      1.0000 0.32715  0.50649  0.55095  Biso   1.000  O
  O24      1.0000 0.67285  0.14544  0.58127  Biso   1.000  O
  Ir9      1.0000 1.00000  0.27625  0.66437  Biso   1.000  Ir
  Ir10     1.0000 0.50000  0.77625  0.66437  Biso   1.000  Ir
  O25      1.0000 0.34569  0.80111  0.61524  Biso   1.000  O
  O26      1.0000 0.67285  0.45677  0.64921  Biso   1.000  O
  O27      1.0000 0.32715  0.09573  0.67954  Biso   1.000  O
  O28      1.0000 0.15429  0.30111  0.61524  Biso   1.000  O
  O29      1.0000 0.82715  0.95676  0.64921  Biso   1.000  O
  O30      1.0000 0.17285  0.59572  0.67953  Biso   1.000  O
  Ir11     1.0000 0.50000  0.72652  0.76263  Biso   1.000  Ir
  Ir12     1.0000 1.00000  0.22652  0.76263  Biso   1.000  Ir
  O31      1.0000 0.84569  0.25139  0.71350  Biso   1.000  O
  O32      1.0000 0.17285  0.90705  0.74747  Biso   1.000  O
  O33      1.0000 0.82715  0.54601  0.77780  Biso   1.000  O
  O34      1.0000 0.65429  0.75139  0.71350  Biso   1.000  O
  O35      1.0000 0.32715  0.40704  0.74747  Biso   1.000  O
  O36      1.0000 0.67285  0.04600  0.77779  Biso   1.000  O
