data_image0
_cell_length_a       9.3927
_cell_length_b       8.72335
_cell_length_c       27.0937
_cell_angle_alpha    90
_cell_angle_beta     90
_cell_angle_gamma    90

_symmetry_space_group_name_H-M    "P 1"
_symmetry_int_tables_number       1

loop_
  _symmetry_equiv_pos_as_xyz
  'x, y, z'

loop_
  _atom_site_label
  _atom_site_occupancy
  _atom_site_fract_x
  _atom_site_fract_y
  _atom_site_fract_z
  _atom_site_thermal_displace_type
  _atom_site_B_iso_or_equiv
  _atom_site_type_symbol
  O1       1.0000 0.19637  0.32474  0.27682  Biso   1.000  O
  O2       1.0000 0.19637  0.67526  0.27682  Biso   1.000  O
  O3       1.0000 0.44636  0.17526  0.28985  Biso   1.000  O
  O4       1.0000 0.44636  0.82474  0.28985  Biso   1.000  O
  O5       1.0000 0.43034  0.50000  0.29540  Biso   1.000  O
  O6       1.0000 0.24999  0.50000  0.35792  Biso   1.000  O
  O7       1.0000 0.23397  0.17526  0.36348  Biso   1.000  O
  O8       1.0000 0.23397  0.82474  0.36348  Biso   1.000  O
  O9       1.0000 0.48397  0.32474  0.37652  Biso   1.000  O
  O10      1.0000 0.48397  0.67526  0.37652  Biso   1.000  O
  O11      1.0000 0.50000  0.00000  0.38207  Biso   1.000  O
  O12      1.0000 0.18034  0.00000  0.44458  Biso   1.000  O
  O13      1.0000 0.19637  0.32474  0.45015  Biso   1.000  O
  O14      1.0000 0.19637  0.67526  0.45015  Biso   1.000  O
  O15      1.0000 0.44636  0.17526  0.46318  Biso   1.000  O
  O16      1.0000 0.44636  0.82474  0.46318  Biso   1.000  O
  O17      1.0000 0.43034  0.50000  0.46873  Biso   1.000  O
  O18      1.0000 0.24999  0.50000  0.53127  Biso   1.000  O
  O19      1.0000 0.23397  0.17526  0.53682  Biso   1.000  O
  O20      1.0000 0.23397  0.82474  0.53682  Biso   1.000  O
  O21      1.0000 0.48369  0.32389  0.55042  Biso   1.000  O
  O22      1.0000 0.48350  0.67578  0.55052  Biso   1.000  O
  O23      1.0000 0.49957  0.99931  0.55814  Biso   1.000  O
  O24      1.0000 0.18326  0.99956  0.61730  Biso   1.000  O
  O25      1.0000 0.19725  0.32456  0.62359  Biso   1.000  O
  O26      1.0000 0.19577  0.67322  0.62263  Biso   1.000  O
  O27      1.0000 0.45176  0.18402  0.63901  Biso   1.000  O
  O28      1.0000 0.45260  0.81659  0.63940  Biso   1.000  O
  O29      1.0000 0.42517  0.50152  0.64356  Biso   1.000  O
  O30      1.0000 0.24708  0.50040  0.70644  Biso   1.000  O
  O31      1.0000 0.23342  0.20079  0.71302  Biso   1.000  O
  O32      1.0000 0.22862  0.80282  0.71089  Biso   1.000  O
  O33      1.0000 0.48780  0.33509  0.72499  Biso   1.000  O
  O34      1.0000 0.47948  0.65917  0.72688  Biso   1.000  O
  O35      1.0000 0.69637  0.32474  0.27682  Biso   1.000  O
  O36      1.0000 0.69637  0.67526  0.27682  Biso   1.000  O
  O37      1.0000 0.94636  0.17526  0.28985  Biso   1.000  O
  O38      1.0000 0.94636  0.82474  0.28985  Biso   1.000  O
  O39      1.0000 0.93034  0.50000  0.29540  Biso   1.000  O
  O40      1.0000 0.74999  0.50000  0.35792  Biso   1.000  O
  O41      1.0000 0.73397  0.17526  0.36348  Biso   1.000  O
  O42      1.0000 0.73397  0.82474  0.36348  Biso   1.000  O
  O43      1.0000 0.98397  0.32474  0.37652  Biso   1.000  O
  O44      1.0000 0.98397  0.67526  0.37652  Biso   1.000  O
  O45      1.0000 0.00000  0.00000  0.38207  Biso   1.000  O
  O46      1.0000 0.68034  0.00000  0.44458  Biso   1.000  O
  O47      1.0000 0.69637  0.32474  0.45015  Biso   1.000  O
  O48      1.0000 0.69637  0.67526  0.45015  Biso   1.000  O
  O49      1.0000 0.94636  0.17526  0.46318  Biso   1.000  O
  O50      1.0000 0.94636  0.82474  0.46318  Biso   1.000  O
  O51      1.0000 0.93034  0.50000  0.46873  Biso   1.000  O
  O52      1.0000 0.74999  0.50000  0.53127  Biso   1.000  O
  O53      1.0000 0.73397  0.17526  0.53682  Biso   1.000  O
  O54      1.0000 0.73397  0.82474  0.53682  Biso   1.000  O
  O55      1.0000 0.98316  0.32304  0.55028  Biso   1.000  O
  O56      1.0000 0.98276  0.67646  0.55022  Biso   1.000  O
  O57      1.0000 0.99880  0.99990  0.55678  Biso   1.000  O
  O58      1.0000 0.68178  0.99993  0.61855  Biso   1.000  O
  O59      1.0000 0.70417  0.32448  0.62124  Biso   1.000  O
  O60      1.0000 0.70370  0.67470  0.62097  Biso   1.000  O
  O61      1.0000 0.95149  0.17504  0.63861  Biso   1.000  O
  O62      1.0000 0.95122  0.82230  0.63880  Biso   1.000  O
  O63      1.0000 0.91869  0.49913  0.63930  Biso   1.000  O
  O64      1.0000 0.75191  0.49728  0.70638  Biso   1.000  O
  O65      1.0000 0.73171  0.18591  0.70535  Biso   1.000  O
  O66      1.0000 0.72929  0.80475  0.70601  Biso   1.000  O
  O67      1.0000 0.98867  0.33781  0.72111  Biso   1.000  O
  O68      1.0000 0.98911  0.66042  0.72162  Biso   1.000  O
  Ir1      1.0000 0.34016  0.32466  0.32667  Biso   1.000  Ir
  Ir2      1.0000 0.34016  0.67535  0.32667  Biso   1.000  Ir
  Ir3      1.0000 0.09016  0.17534  0.41333  Biso   1.000  Ir
  Ir4      1.0000 0.09016  0.82466  0.41333  Biso   1.000  Ir
  Ir5      1.0000 0.34016  0.32466  0.50000  Biso   1.000  Ir
  Ir6      1.0000 0.34016  0.67535  0.50000  Biso   1.000  Ir
  Ir7      1.0000 0.09146  0.17603  0.58675  Biso   1.000  Ir
  Ir8      1.0000 0.09074  0.82412  0.58665  Biso   1.000  Ir
  Ir9      1.0000 0.33849  0.32312  0.67581  Biso   1.000  Ir
  Ir10     1.0000 0.33535  0.67832  0.67511  Biso   1.000  Ir
  Ir11     1.0000 0.84017  0.32466  0.32667  Biso   1.000  Ir
  Ir12     1.0000 0.84017  0.67535  0.32667  Biso   1.000  Ir
  Ir13     1.0000 0.59016  0.17534  0.41333  Biso   1.000  Ir
  Ir14     1.0000 0.59016  0.82466  0.41333  Biso   1.000  Ir
  Ir15     1.0000 0.84017  0.32466  0.50000  Biso   1.000  Ir
  Ir16     1.0000 0.84017  0.67535  0.50000  Biso   1.000  Ir
  Ir17     1.0000 0.59268  0.17736  0.58751  Biso   1.000  Ir
  Ir18     1.0000 0.59309  0.82175  0.58757  Biso   1.000  Ir
  Ir19     1.0000 0.84887  0.31897  0.67774  Biso   1.000  Ir
  Ir20     1.0000 0.85150  0.67394  0.67747  Biso   1.000  Ir
  H1       1.0000 0.55882  0.73341  0.72247  Biso   1.000  H
  H2       1.0000 0.50122  0.44495  0.73380  Biso   1.000  H
