data_179197-3835-5794-AlF3_F6Al2fixed\(2\1\1)
_audit_creation_date              2018-06-18
_audit_creation_method            'Materials Studio'
_symmetry_space_group_name_H-M    'P1'
_symmetry_Int_Tables_number       1
_symmetry_cell_setting            triclinic
loop_
_symmetry_equiv_pos_as_xyz
  x,y,z
_cell_length_a                    7.0938
_cell_length_b                    4.8830
_cell_length_c                    21.0563
_cell_angle_alpha                 90.0000
_cell_angle_beta                  90.0000
_cell_angle_gamma                 90.0000
loop_
_atom_site_label
_atom_site_type_symbol
_atom_site_fract_x
_atom_site_fract_y
_atom_site_fract_z
_atom_site_U_iso_or_equiv
_atom_site_adp_type
_atom_site_occupancy
Ir1    Ir    0.82849   0.00000   0.31720   0.01267  Uiso   1.00
Ir2    Ir    0.30232   0.50000   0.43907   0.01267  Uiso   1.00
Ir3    Ir    0.77616   0.00000   0.56093   0.01267  Uiso   1.00
Ir4    Ir    0.25000   0.50000   0.68280   0.01267  Uiso   1.00
Ir5    Ir    0.32849   0.00000   0.31720   0.01267  Uiso   1.00
Ir6    Ir    0.80232   0.50000   0.43907   0.01267  Uiso   1.00
Ir7    Ir    0.27616   0.00000   0.56093   0.01267  Uiso   1.00
Ir8    Ir    0.75000   0.50000   0.68280   0.01267  Uiso   1.00
O9     O     0.26845   0.82716   0.23746   0.01267  Uiso   1.00
O10    O     0.74229   0.32716   0.35933   0.01267  Uiso   1.00
O11    O     0.21613   0.82716   0.48119   0.01267  Uiso   1.00
O12    O     0.68996   0.32716   0.60306   0.01267  Uiso   1.00
O13    O     0.16380   0.82716   0.72493   0.01267  Uiso   1.00
O14    O     0.76846   0.17286   0.23746   0.01267  Uiso   1.00
O15    O     0.24230   0.67286   0.35933   0.01267  Uiso   1.00
O16    O     0.71613   0.17286   0.48120   0.01267  Uiso   1.00
O17    O     0.18997   0.67286   0.60307   0.01267  Uiso   1.00
O18    O     0.66381   0.17286   0.72493   0.01267  Uiso   1.00
O19    O     0.41469   0.32716   0.27507   0.01267  Uiso   1.00
O20    O     0.88852   0.82716   0.39694   0.01267  Uiso   1.00
O21    O     0.36236   0.32716   0.51881   0.01267  Uiso   1.00
O22    O     0.83620   0.82716   0.64067   0.01267  Uiso   1.00
O23    O     0.31004   0.32716   0.76254   0.01267  Uiso   1.00
O24    O     0.91468   0.67286   0.27507   0.01267  Uiso   1.00
O25    O     0.38851   0.17286   0.39693   0.01267  Uiso   1.00
O26    O     0.86235   0.67286   0.51880   0.01267  Uiso   1.00
O27    O     0.33619   0.17286   0.64067   0.01267  Uiso   1.00
O28    O     0.81003   0.67286   0.76254   0.01267  Uiso   1.00
O29    O     0.57849   0.84569   0.31720   0.01267  Uiso   1.00
O30    O     0.05232   0.34569   0.43907   0.01267  Uiso   1.00
O31    O     0.52616   0.84569   0.56093   0.01267  Uiso   1.00
O32    O    -0.00000   0.34569   0.68280   0.01267  Uiso   1.00
O33    O     0.07849   0.15429   0.31720   0.01267  Uiso   1.00
O34    O     0.55232   0.65429   0.43907   0.01267  Uiso   1.00
O35    O     0.02616   0.15429   0.56093   0.01267  Uiso   1.00
O36    O     0.50000   0.65429   0.68280   0.01267  Uiso   1.00
