data_image0
_cell_length_a       7.0938
_cell_length_b       4.883
_cell_length_c       21.0563
_cell_angle_alpha    90
_cell_angle_beta     90
_cell_angle_gamma    90

_symmetry_space_group_name_H-M    "P 1"
_symmetry_int_tables_number       1

loop_
  _symmetry_equiv_pos_as_xyz
  'x, y, z'

loop_
  _atom_site_label
  _atom_site_occupancy
  _atom_site_fract_x
  _atom_site_fract_y
  _atom_site_fract_z
  _atom_site_thermal_displace_type
  _atom_site_B_iso_or_equiv
  _atom_site_type_symbol
  Ir1      1.0000 0.82849  0.00000  0.31720  Biso   1.000  Ir
  Ir2      1.0000 0.30232  0.50000  0.43907  Biso   1.000  Ir
  Ir3      1.0000 0.77616  0.00000  0.56093  Biso   1.000  Ir
  Ir4      1.0000 0.25000  0.50000  0.68280  Biso   1.000  Ir
  Ir5      1.0000 0.32849  0.00000  0.31720  Biso   1.000  Ir
  Ir6      1.0000 0.80232  0.50000  0.43907  Biso   1.000  Ir
  Ir7      1.0000 0.27616  0.00000  0.56093  Biso   1.000  Ir
  Ir8      1.0000 0.75000  0.50000  0.68280  Biso   1.000  Ir
  O1       1.0000 0.74229  0.32716  0.35933  Biso   1.000  O
  O2       1.0000 0.21613  0.82716  0.48119  Biso   1.000  O
  O3       1.0000 0.68996  0.32716  0.60306  Biso   1.000  O
  O4       1.0000 0.16380  0.82716  0.72493  Biso   1.000  O
  O5       1.0000 0.24230  0.67286  0.35933  Biso   1.000  O
  O6       1.0000 0.71613  0.17286  0.48120  Biso   1.000  O
  O7       1.0000 0.18997  0.67286  0.60307  Biso   1.000  O
  O8       1.0000 0.66381  0.17286  0.72493  Biso   1.000  O
  O9       1.0000 0.88852  0.82716  0.39694  Biso   1.000  O
  O10      1.0000 0.36236  0.32716  0.51881  Biso   1.000  O
  O11      1.0000 0.83620  0.82716  0.64067  Biso   1.000  O
  O12      1.0000 0.31004  0.32716  0.76254  Biso   1.000  O
  O13      1.0000 0.38851  0.17286  0.39693  Biso   1.000  O
  O14      1.0000 0.86235  0.67286  0.51880  Biso   1.000  O
  O15      1.0000 0.33619  0.17286  0.64067  Biso   1.000  O
  O16      1.0000 0.81003  0.67286  0.76254  Biso   1.000  O
  O17      1.0000 0.57849  0.84569  0.31720  Biso   1.000  O
  O18      1.0000 0.05232  0.34569  0.43907  Biso   1.000  O
  O19      1.0000 0.52616  0.84569  0.56093  Biso   1.000  O
  O20      1.0000 0.00000  0.34569  0.68280  Biso   1.000  O
  O21      1.0000 0.07849  0.15429  0.31720  Biso   1.000  O
  O22      1.0000 0.55232  0.65429  0.43907  Biso   1.000  O
  O23      1.0000 0.02616  0.15429  0.56093  Biso   1.000  O
  O24      1.0000 0.50000  0.65429  0.68280  Biso   1.000  O
