data_image0
_cell_length_a       4.88305
_cell_length_b       7.09375
_cell_length_c       61.3027
_cell_angle_alpha    90
_cell_angle_beta     90
_cell_angle_gamma    90

_symmetry_space_group_name_H-M    "P 1"
_symmetry_int_tables_number       1

loop_
  _symmetry_equiv_pos_as_xyz
  'x, y, z'

loop_
  _atom_site_label
  _atom_site_occupancy
  _atom_site_fract_x
  _atom_site_fract_y
  _atom_site_fract_z
  _atom_site_thermal_displace_type
  _atom_site_B_iso_or_equiv
  _atom_site_type_symbol
  O1       1.0000 0.00000  0.79852  0.14497  Biso   1.000  O
  O2       1.0000 0.65430  0.29853  0.14497  Biso   1.000  O
  O3       1.0000 0.15430  0.44475  0.15789  Biso   1.000  O
  O4       1.0000 0.50000  0.94476  0.15789  Biso   1.000  O
  O5       1.0000 0.98146  0.10856  0.17236  Biso   1.000  O
  Ir1      1.0000 0.82716  0.35856  0.17236  Biso   1.000  Ir
  O6       1.0000 0.67286  0.60856  0.17236  Biso   1.000  O
  Ir2      1.0000 0.82716  0.85856  0.17236  Biso   1.000  Ir
  O7       1.0000 0.50000  0.27236  0.18683  Biso   1.000  O
  O8       1.0000 0.15430  0.77237  0.18683  Biso   1.000  O
  O9       1.0000 0.65430  0.91859  0.19975  Biso   1.000  O
  O10      1.0000 0.00000  0.41860  0.19975  Biso   1.000  O
