data_image0
_cell_length_a       5.9119
_cell_length_b       8.4461
_cell_length_c       121.526
_cell_angle_alpha    90
_cell_angle_beta     90
_cell_angle_gamma    90

_symmetry_space_group_name_H-M    "P 1"
_symmetry_int_tables_number       1

loop_
  _symmetry_equiv_pos_as_xyz
  'x, y, z'

loop_
  _atom_site_label
  _atom_site_occupancy
  _atom_site_fract_x
  _atom_site_fract_y
  _atom_site_fract_z
  _atom_site_thermal_displace_type
  _atom_site_B_iso_or_equiv
  _atom_site_type_symbol
  Ir1      1.0000 0.75000  0.75000  0.20034  Biso   1.000  Ir
  Ir2      1.0000 0.25000  0.25000  0.20034  Biso   1.000  Ir
  Ir3      1.0000 0.50000  0.50000  0.18815  Biso   1.000  Ir
  Ir4      1.0000 0.00000  0.00000  0.18815  Biso   1.000  Ir
  O1       1.0000 0.28400  0.48200  0.20012  Biso   1.000  O
  O2       1.0000 0.71600  0.51800  0.20012  Biso   1.000  O
  O3       1.0000 0.78400  0.98200  0.20012  Biso   1.000  O
  O4       1.0000 0.21600  0.01800  0.20012  Biso   1.000  O
  O5       1.0000 0.28100  0.50000  0.17590  Biso   1.000  O
  O6       1.0000 0.71900  0.50000  0.17590  Biso   1.000  O
  O7       1.0000 0.78100  0.00000  0.17590  Biso   1.000  O
  O8       1.0000 0.21900  0.00000  0.17590  Biso   1.000  O
  O9       1.0000 0.53000  0.74200  0.18882  Biso   1.000  O
  O10      1.0000 0.47000  0.25800  0.18882  Biso   1.000  O
  O11      1.0000 0.03000  0.24200  0.18882  Biso   1.000  O
  O12      1.0000 0.97000  0.75800  0.18882  Biso   1.000  O
  Ir5      1.0000 0.25000  0.25000  0.22486  Biso   1.000  Ir
  Ir6      1.0000 0.75000  0.75000  0.34710  Biso   1.000  Ir
  Ir7      1.0000 0.75000  0.75000  0.22486  Biso   1.000  Ir
  Ir8      1.0000 0.25000  0.25000  0.34710  Biso   1.000  Ir
  Ir9      1.0000 0.75000  0.25000  0.27372  Biso   1.000  Ir
  Ir10     1.0000 0.25000  0.75000  0.29824  Biso   1.000  Ir
  Ir11     1.0000 0.25000  0.75000  0.27372  Biso   1.000  Ir
  Ir12     1.0000 0.75000  0.25000  0.29824  Biso   1.000  Ir
  Ir13     1.0000 0.50000  0.50000  0.23705  Biso   1.000  Ir
  Ir14     1.0000 0.50000  0.50000  0.33491  Biso   1.000  Ir
  Ir15     1.0000 0.50000  0.50000  0.26153  Biso   1.000  Ir
  Ir16     1.0000 0.50000  0.50000  0.31043  Biso   1.000  Ir
  Ir17     1.0000 0.00000  0.00000  0.23705  Biso   1.000  Ir
  Ir18     1.0000 0.00000  0.00000  0.33491  Biso   1.000  Ir
  Ir19     1.0000 0.00000  0.00000  0.26153  Biso   1.000  Ir
  Ir20     1.0000 0.00000  0.00000  0.31043  Biso   1.000  Ir
  O13      1.0000 0.71600  0.51800  0.22507  Biso   1.000  O
  O14      1.0000 0.28400  0.48200  0.34689  Biso   1.000  O
  O15      1.0000 0.28400  0.48200  0.22507  Biso   1.000  O
  O16      1.0000 0.71600  0.51800  0.34689  Biso   1.000  O
  O17      1.0000 0.28400  0.51800  0.27350  Biso   1.000  O
  O18      1.0000 0.71600  0.48200  0.29845  Biso   1.000  O
  O19      1.0000 0.71600  0.48200  0.27350  Biso   1.000  O
  O20      1.0000 0.28400  0.51800  0.29845  Biso   1.000  O
  O21      1.0000 0.21600  0.01800  0.22507  Biso   1.000  O
  O22      1.0000 0.78400  0.98200  0.34689  Biso   1.000  O
  O23      1.0000 0.78400  0.98200  0.22507  Biso   1.000  O
  O24      1.0000 0.21600  0.01800  0.34689  Biso   1.000  O
  O25      1.0000 0.78400  0.01800  0.27350  Biso   1.000  O
  O26      1.0000 0.21600  0.98200  0.29845  Biso   1.000  O
  O27      1.0000 0.21600  0.98200  0.27350  Biso   1.000  O
  O28      1.0000 0.78400  0.01800  0.29845  Biso   1.000  O
  O29      1.0000 0.71900  0.50000  0.24929  Biso   1.000  O
  O30      1.0000 0.28100  0.50000  0.32267  Biso   1.000  O
  O31      1.0000 0.28100  0.50000  0.24929  Biso   1.000  O
  O32      1.0000 0.71900  0.50000  0.32267  Biso   1.000  O
  O33      1.0000 0.21900  0.00000  0.24929  Biso   1.000  O
  O34      1.0000 0.78100  0.00000  0.32267  Biso   1.000  O
  O35      1.0000 0.78100  0.00000  0.24929  Biso   1.000  O
  O36      1.0000 0.21900  0.00000  0.32267  Biso   1.000  O
  O37      1.0000 0.01800  0.27100  0.21260  Biso   1.000  O
  O38      1.0000 0.98200  0.72900  0.21260  Biso   1.000  O
  O39      1.0000 0.98200  0.27100  0.28598  Biso   1.000  O
  O40      1.0000 0.01800  0.72900  0.28598  Biso   1.000  O
  O41      1.0000 0.51800  0.77100  0.21260  Biso   1.000  O
  O42      1.0000 0.48200  0.22900  0.21260  Biso   1.000  O
  O43      1.0000 0.48200  0.77100  0.28598  Biso   1.000  O
  O44      1.0000 0.51800  0.22900  0.28598  Biso   1.000  O
  O45      1.0000 0.47000  0.25800  0.23637  Biso   1.000  O
  O46      1.0000 0.53000  0.74200  0.33559  Biso   1.000  O
  O47      1.0000 0.53000  0.74200  0.23637  Biso   1.000  O
  O48      1.0000 0.47000  0.25800  0.33559  Biso   1.000  O
  O49      1.0000 0.53000  0.25800  0.26220  Biso   1.000  O
  O50      1.0000 0.47000  0.74200  0.30976  Biso   1.000  O
  O51      1.0000 0.47000  0.74200  0.26220  Biso   1.000  O
  O52      1.0000 0.53000  0.25800  0.30976  Biso   1.000  O
  O53      1.0000 0.97000  0.75800  0.23637  Biso   1.000  O
  O54      1.0000 0.03000  0.24200  0.33559  Biso   1.000  O
  O55      1.0000 0.03000  0.24200  0.23637  Biso   1.000  O
  O56      1.0000 0.97000  0.75800  0.33559  Biso   1.000  O
  O57      1.0000 0.03000  0.75800  0.26220  Biso   1.000  O
  O58      1.0000 0.97000  0.24200  0.30976  Biso   1.000  O
  O59      1.0000 0.97000  0.24200  0.26220  Biso   1.000  O
  O60      1.0000 0.03000  0.75800  0.30976  Biso   1.000  O
  Ir21     1.0000 0.25000  0.25000  0.37162  Biso   1.000  Ir
  Ir22     1.0000 0.75000  0.75000  0.49387  Biso   1.000  Ir
  Ir23     1.0000 0.75000  0.75000  0.37162  Biso   1.000  Ir
  Ir24     1.0000 0.25000  0.25000  0.49387  Biso   1.000  Ir
  Ir25     1.0000 0.75000  0.25000  0.42049  Biso   1.000  Ir
  Ir26     1.0000 0.25000  0.75000  0.44501  Biso   1.000  Ir
  Ir27     1.0000 0.25000  0.75000  0.42049  Biso   1.000  Ir
  Ir28     1.0000 0.75000  0.25000  0.44501  Biso   1.000  Ir
  Ir29     1.0000 0.50000  0.50000  0.38381  Biso   1.000  Ir
  Ir30     1.0000 0.50000  0.50000  0.48168  Biso   1.000  Ir
  Ir31     1.0000 0.50000  0.50000  0.40830  Biso   1.000  Ir
  Ir32     1.0000 0.50000  0.50000  0.45720  Biso   1.000  Ir
  Ir33     1.0000 0.00000  0.00000  0.38381  Biso   1.000  Ir
  Ir34     1.0000 0.00000  0.00000  0.48168  Biso   1.000  Ir
  Ir35     1.0000 0.00000  0.00000  0.40830  Biso   1.000  Ir
  Ir36     1.0000 0.00000  0.00000  0.45720  Biso   1.000  Ir
  O61      1.0000 0.71600  0.51800  0.37184  Biso   1.000  O
  O62      1.0000 0.28400  0.48200  0.49365  Biso   1.000  O
  O63      1.0000 0.28400  0.48200  0.37184  Biso   1.000  O
  O64      1.0000 0.71600  0.51800  0.49365  Biso   1.000  O
  O65      1.0000 0.28400  0.51800  0.42027  Biso   1.000  O
  O66      1.0000 0.71600  0.48200  0.44522  Biso   1.000  O
  O67      1.0000 0.71600  0.48200  0.42027  Biso   1.000  O
  O68      1.0000 0.28400  0.51800  0.44522  Biso   1.000  O
  O69      1.0000 0.21600  0.01800  0.37184  Biso   1.000  O
  O70      1.0000 0.78400  0.98200  0.49365  Biso   1.000  O
  O71      1.0000 0.78400  0.98200  0.37184  Biso   1.000  O
  O72      1.0000 0.21600  0.01800  0.49365  Biso   1.000  O
  O73      1.0000 0.78400  0.01800  0.42027  Biso   1.000  O
  O74      1.0000 0.21600  0.98200  0.44522  Biso   1.000  O
  O75      1.0000 0.21600  0.98200  0.42027  Biso   1.000  O
  O76      1.0000 0.78400  0.01800  0.44522  Biso   1.000  O
  O77      1.0000 0.71900  0.50000  0.39605  Biso   1.000  O
  O78      1.0000 0.28100  0.50000  0.46944  Biso   1.000  O
  O79      1.0000 0.28100  0.50000  0.39605  Biso   1.000  O
  O80      1.0000 0.71900  0.50000  0.46944  Biso   1.000  O
  O81      1.0000 0.21900  0.00000  0.39605  Biso   1.000  O
  O82      1.0000 0.78100  0.00000  0.46944  Biso   1.000  O
  O83      1.0000 0.78100  0.00000  0.39605  Biso   1.000  O
  O84      1.0000 0.21900  0.00000  0.46944  Biso   1.000  O
  O85      1.0000 0.01800  0.27100  0.35936  Biso   1.000  O
  O86      1.0000 0.98200  0.72900  0.35936  Biso   1.000  O
  O87      1.0000 0.98200  0.27100  0.43275  Biso   1.000  O
  O88      1.0000 0.01800  0.72900  0.43275  Biso   1.000  O
  O89      1.0000 0.51800  0.77100  0.35936  Biso   1.000  O
  O90      1.0000 0.48200  0.22900  0.35936  Biso   1.000  O
  O91      1.0000 0.48200  0.77100  0.43275  Biso   1.000  O
  O92      1.0000 0.51800  0.22900  0.43275  Biso   1.000  O
  O93      1.0000 0.47000  0.25800  0.38314  Biso   1.000  O
  O94      1.0000 0.53000  0.74200  0.48235  Biso   1.000  O
  O95      1.0000 0.53000  0.74200  0.38314  Biso   1.000  O
  O96      1.0000 0.47000  0.25800  0.48235  Biso   1.000  O
  O97      1.0000 0.53000  0.25800  0.40897  Biso   1.000  O
  O98      1.0000 0.47000  0.74200  0.45652  Biso   1.000  O
  O99      1.0000 0.47000  0.74200  0.40897  Biso   1.000  O
  O100     1.0000 0.53000  0.25800  0.45652  Biso   1.000  O
  O101     1.0000 0.97000  0.75800  0.38314  Biso   1.000  O
  O102     1.0000 0.03000  0.24200  0.48235  Biso   1.000  O
  O103     1.0000 0.03000  0.24200  0.38314  Biso   1.000  O
  O104     1.0000 0.97000  0.75800  0.48235  Biso   1.000  O
  O105     1.0000 0.03000  0.75800  0.40897  Biso   1.000  O
  O106     1.0000 0.97000  0.24200  0.45652  Biso   1.000  O
  O107     1.0000 0.97000  0.24200  0.40897  Biso   1.000  O
  O108     1.0000 0.03000  0.75800  0.45652  Biso   1.000  O
  Ir37     1.0000 0.25000  0.25000  0.51839  Biso   1.000  Ir
  Ir38     1.0000 0.75000  0.75000  0.64064  Biso   1.000  Ir
  Ir39     1.0000 0.75000  0.75000  0.51839  Biso   1.000  Ir
  Ir40     1.0000 0.25000  0.25000  0.64064  Biso   1.000  Ir
  Ir41     1.0000 0.75000  0.25000  0.56725  Biso   1.000  Ir
  Ir42     1.0000 0.25000  0.75000  0.59177  Biso   1.000  Ir
  Ir43     1.0000 0.25000  0.75000  0.56725  Biso   1.000  Ir
  Ir44     1.0000 0.75000  0.25000  0.59177  Biso   1.000  Ir
  Ir45     1.0000 0.50000  0.50000  0.53058  Biso   1.000  Ir
  Ir46     1.0000 0.50000  0.50000  0.62845  Biso   1.000  Ir
  Ir47     1.0000 0.50000  0.50000  0.55506  Biso   1.000  Ir
  Ir48     1.0000 0.50000  0.50000  0.60396  Biso   1.000  Ir
  Ir49     1.0000 0.00000  0.00000  0.53058  Biso   1.000  Ir
  Ir50     1.0000 0.00000  0.00000  0.62845  Biso   1.000  Ir
  Ir51     1.0000 0.00000  0.00000  0.55506  Biso   1.000  Ir
  Ir52     1.0000 0.00000  0.00000  0.60396  Biso   1.000  Ir
  O109     1.0000 0.71600  0.51800  0.51860  Biso   1.000  O
  O110     1.0000 0.28400  0.48200  0.64042  Biso   1.000  O
  O111     1.0000 0.28400  0.48200  0.51860  Biso   1.000  O
  O112     1.0000 0.71600  0.51800  0.64042  Biso   1.000  O
  O113     1.0000 0.28400  0.51800  0.56704  Biso   1.000  O
  O114     1.0000 0.71600  0.48200  0.59199  Biso   1.000  O
  O115     1.0000 0.71600  0.48200  0.56704  Biso   1.000  O
  O116     1.0000 0.28400  0.51800  0.59199  Biso   1.000  O
  O117     1.0000 0.21600  0.01800  0.51860  Biso   1.000  O
  O118     1.0000 0.78400  0.98200  0.64042  Biso   1.000  O
  O119     1.0000 0.78400  0.98200  0.51860  Biso   1.000  O
  O120     1.0000 0.21600  0.01800  0.64042  Biso   1.000  O
  O121     1.0000 0.78400  0.01800  0.56704  Biso   1.000  O
  O122     1.0000 0.21600  0.98200  0.59199  Biso   1.000  O
  O123     1.0000 0.21600  0.98200  0.56704  Biso   1.000  O
  O124     1.0000 0.78400  0.01800  0.59199  Biso   1.000  O
  O125     1.0000 0.71900  0.50000  0.54282  Biso   1.000  O
  O126     1.0000 0.28100  0.50000  0.61620  Biso   1.000  O
  O127     1.0000 0.28100  0.50000  0.54282  Biso   1.000  O
  O128     1.0000 0.71900  0.50000  0.61620  Biso   1.000  O
  O129     1.0000 0.21900  0.00000  0.54282  Biso   1.000  O
  O130     1.0000 0.78100  0.00000  0.61620  Biso   1.000  O
  O131     1.0000 0.78100  0.00000  0.54282  Biso   1.000  O
  O132     1.0000 0.21900  0.00000  0.61620  Biso   1.000  O
  O133     1.0000 0.01800  0.27100  0.50613  Biso   1.000  O
  O134     1.0000 0.98200  0.72900  0.50613  Biso   1.000  O
  O135     1.0000 0.98200  0.27100  0.57951  Biso   1.000  O
  O136     1.0000 0.01800  0.72900  0.57951  Biso   1.000  O
  O137     1.0000 0.51800  0.77100  0.50613  Biso   1.000  O
  O138     1.0000 0.48200  0.22900  0.50613  Biso   1.000  O
  O139     1.0000 0.48200  0.77100  0.57951  Biso   1.000  O
  O140     1.0000 0.51800  0.22900  0.57951  Biso   1.000  O
  O141     1.0000 0.47000  0.25800  0.52991  Biso   1.000  O
  O142     1.0000 0.53000  0.74200  0.62912  Biso   1.000  O
  O143     1.0000 0.53000  0.74200  0.52991  Biso   1.000  O
  O144     1.0000 0.47000  0.25800  0.62912  Biso   1.000  O
  O145     1.0000 0.53000  0.25800  0.55574  Biso   1.000  O
  O146     1.0000 0.47000  0.74200  0.60329  Biso   1.000  O
  O147     1.0000 0.47000  0.74200  0.55574  Biso   1.000  O
  O148     1.0000 0.53000  0.25800  0.60329  Biso   1.000  O
  O149     1.0000 0.97000  0.75800  0.52991  Biso   1.000  O
  O150     1.0000 0.03000  0.24200  0.62912  Biso   1.000  O
  O151     1.0000 0.03000  0.24200  0.52991  Biso   1.000  O
  O152     1.0000 0.97000  0.75800  0.62912  Biso   1.000  O
  O153     1.0000 0.03000  0.75800  0.55574  Biso   1.000  O
  O154     1.0000 0.97000  0.24200  0.60329  Biso   1.000  O
  O155     1.0000 0.97000  0.24200  0.55574  Biso   1.000  O
  O156     1.0000 0.03000  0.75800  0.60329  Biso   1.000  O
  Ir53     1.0000 0.25000  0.25000  0.66516  Biso   1.000  Ir
  Ir54     1.0000 0.75000  0.75000  0.78740  Biso   1.000  Ir
  Ir55     1.0000 0.75000  0.75000  0.66516  Biso   1.000  Ir
  Ir56     1.0000 0.25000  0.25000  0.78740  Biso   1.000  Ir
  Ir57     1.0000 0.75000  0.25000  0.71402  Biso   1.000  Ir
  Ir58     1.0000 0.25000  0.75000  0.73854  Biso   1.000  Ir
  Ir59     1.0000 0.25000  0.75000  0.71402  Biso   1.000  Ir
  Ir60     1.0000 0.75000  0.25000  0.73854  Biso   1.000  Ir
  Ir61     1.0000 0.50000  0.50000  0.67735  Biso   1.000  Ir
  Ir62     1.0000 0.50000  0.50000  0.77521  Biso   1.000  Ir
  Ir63     1.0000 0.50000  0.50000  0.70183  Biso   1.000  Ir
  Ir64     1.0000 0.50000  0.50000  0.75073  Biso   1.000  Ir
  Ir65     1.0000 0.00000  0.00000  0.67735  Biso   1.000  Ir
  Ir66     1.0000 0.00000  0.00000  0.77521  Biso   1.000  Ir
  Ir67     1.0000 0.00000  0.00000  0.70183  Biso   1.000  Ir
  Ir68     1.0000 0.00000  0.00000  0.75073  Biso   1.000  Ir
  O157     1.0000 0.71600  0.51800  0.66537  Biso   1.000  O
  O158     1.0000 0.28400  0.48200  0.78719  Biso   1.000  O
  O159     1.0000 0.28400  0.48200  0.66537  Biso   1.000  O
  O160     1.0000 0.71600  0.51800  0.78719  Biso   1.000  O
  O161     1.0000 0.28400  0.51800  0.71380  Biso   1.000  O
  O162     1.0000 0.71600  0.48200  0.73876  Biso   1.000  O
  O163     1.0000 0.71600  0.48200  0.71380  Biso   1.000  O
  O164     1.0000 0.28400  0.51800  0.73876  Biso   1.000  O
  O165     1.0000 0.21600  0.01800  0.66537  Biso   1.000  O
  O166     1.0000 0.78400  0.98200  0.78719  Biso   1.000  O
  O167     1.0000 0.78400  0.98200  0.66537  Biso   1.000  O
  O168     1.0000 0.21600  0.01800  0.78719  Biso   1.000  O
  O169     1.0000 0.78400  0.01800  0.71380  Biso   1.000  O
  O170     1.0000 0.21600  0.98200  0.73876  Biso   1.000  O
  O171     1.0000 0.21600  0.98200  0.71380  Biso   1.000  O
  O172     1.0000 0.78400  0.01800  0.73876  Biso   1.000  O
  O173     1.0000 0.71900  0.50000  0.68959  Biso   1.000  O
  O174     1.0000 0.28100  0.50000  0.76297  Biso   1.000  O
  O175     1.0000 0.28100  0.50000  0.68959  Biso   1.000  O
  O176     1.0000 0.71900  0.50000  0.76297  Biso   1.000  O
  O177     1.0000 0.21900  0.00000  0.68959  Biso   1.000  O
  O178     1.0000 0.78100  0.00000  0.76297  Biso   1.000  O
  O179     1.0000 0.78100  0.00000  0.68959  Biso   1.000  O
  O180     1.0000 0.21900  0.00000  0.76297  Biso   1.000  O
  O181     1.0000 0.01800  0.27100  0.65290  Biso   1.000  O
  O182     1.0000 0.98200  0.72900  0.65290  Biso   1.000  O
  O183     1.0000 0.98200  0.27100  0.72628  Biso   1.000  O
  O184     1.0000 0.01800  0.72900  0.72628  Biso   1.000  O
  O185     1.0000 0.51800  0.77100  0.65290  Biso   1.000  O
  O186     1.0000 0.48200  0.22900  0.65290  Biso   1.000  O
  O187     1.0000 0.48200  0.77100  0.72628  Biso   1.000  O
  O188     1.0000 0.51800  0.22900  0.72628  Biso   1.000  O
  O189     1.0000 0.47000  0.25800  0.67667  Biso   1.000  O
  O190     1.0000 0.53000  0.74200  0.77589  Biso   1.000  O
  O191     1.0000 0.53000  0.74200  0.67667  Biso   1.000  O
  O192     1.0000 0.47000  0.25800  0.77589  Biso   1.000  O
  O193     1.0000 0.53000  0.25800  0.70250  Biso   1.000  O
  O194     1.0000 0.47000  0.74200  0.75006  Biso   1.000  O
  O195     1.0000 0.47000  0.74200  0.70250  Biso   1.000  O
  O196     1.0000 0.53000  0.25800  0.75006  Biso   1.000  O
  O197     1.0000 0.97000  0.75800  0.67667  Biso   1.000  O
  O198     1.0000 0.03000  0.24200  0.77589  Biso   1.000  O
  O199     1.0000 0.03000  0.24200  0.67667  Biso   1.000  O
  O200     1.0000 0.97000  0.75800  0.77589  Biso   1.000  O
  O201     1.0000 0.03000  0.75800  0.70250  Biso   1.000  O
  O202     1.0000 0.97000  0.24200  0.75006  Biso   1.000  O
  O203     1.0000 0.97000  0.24200  0.70250  Biso   1.000  O
  O204     1.0000 0.03000  0.75800  0.75006  Biso   1.000  O
  Ir69     1.0000 0.25000  0.25000  0.81192  Biso   1.000  Ir
  Ir70     1.0000 0.75000  0.75000  0.81192  Biso   1.000  Ir
  Ir71     1.0000 0.75000  0.25000  0.86079  Biso   1.000  Ir
  Ir72     1.0000 0.25000  0.75000  0.88531  Biso   1.000  Ir
  Ir73     1.0000 0.25000  0.75000  0.86079  Biso   1.000  Ir
  Ir74     1.0000 0.75000  0.25000  0.88531  Biso   1.000  Ir
  Ir75     1.0000 0.50000  0.50000  0.82411  Biso   1.000  Ir
  Ir76     1.0000 0.50000  0.50000  0.92198  Biso   1.000  Ir
  Ir77     1.0000 0.50000  0.50000  0.84860  Biso   1.000  Ir
  Ir78     1.0000 0.50000  0.50000  0.89750  Biso   1.000  Ir
  Ir79     1.0000 0.00000  0.00000  0.82411  Biso   1.000  Ir
  Ir80     1.0000 0.00000  0.00000  0.92198  Biso   1.000  Ir
  Ir81     1.0000 0.00000  0.00000  0.84860  Biso   1.000  Ir
  Ir82     1.0000 0.00000  0.00000  0.89750  Biso   1.000  Ir
  O205     1.0000 0.71600  0.51800  0.81214  Biso   1.000  O
  O206     1.0000 0.28400  0.48200  0.93395  Biso   1.000  O
  O207     1.0000 0.28400  0.48200  0.81214  Biso   1.000  O
  O208     1.0000 0.71600  0.51800  0.93395  Biso   1.000  O
  O209     1.0000 0.28400  0.51800  0.86057  Biso   1.000  O
  O210     1.0000 0.71600  0.48200  0.88552  Biso   1.000  O
  O211     1.0000 0.71600  0.48200  0.86057  Biso   1.000  O
  O212     1.0000 0.28400  0.51800  0.88552  Biso   1.000  O
  O213     1.0000 0.21600  0.01800  0.81214  Biso   1.000  O
  O214     1.0000 0.78400  0.98200  0.93395  Biso   1.000  O
  O215     1.0000 0.78400  0.98200  0.81214  Biso   1.000  O
  O216     1.0000 0.21600  0.01800  0.93395  Biso   1.000  O
  O217     1.0000 0.78400  0.01800  0.86057  Biso   1.000  O
  O218     1.0000 0.21600  0.98200  0.88552  Biso   1.000  O
  O219     1.0000 0.21600  0.98200  0.86057  Biso   1.000  O
  O220     1.0000 0.78400  0.01800  0.88552  Biso   1.000  O
  O221     1.0000 0.71900  0.50000  0.83635  Biso   1.000  O
  O222     1.0000 0.28100  0.50000  0.90974  Biso   1.000  O
  O223     1.0000 0.28100  0.50000  0.83635  Biso   1.000  O
  O224     1.0000 0.71900  0.50000  0.90974  Biso   1.000  O
  O225     1.0000 0.21900  0.00000  0.83635  Biso   1.000  O
  O226     1.0000 0.78100  0.00000  0.90974  Biso   1.000  O
  O227     1.0000 0.78100  0.00000  0.83635  Biso   1.000  O
  O228     1.0000 0.21900  0.00000  0.90974  Biso   1.000  O
  O229     1.0000 0.01800  0.27100  0.79966  Biso   1.000  O
  O230     1.0000 0.98200  0.72900  0.79966  Biso   1.000  O
  O231     1.0000 0.98200  0.27100  0.87305  Biso   1.000  O
  O232     1.0000 0.01800  0.72900  0.87305  Biso   1.000  O
  O233     1.0000 0.51800  0.77100  0.79966  Biso   1.000  O
  O234     1.0000 0.48200  0.22900  0.79966  Biso   1.000  O
  O235     1.0000 0.48200  0.77100  0.87305  Biso   1.000  O
  O236     1.0000 0.51800  0.22900  0.87305  Biso   1.000  O
  O237     1.0000 0.47000  0.25800  0.82344  Biso   1.000  O
  O238     1.0000 0.53000  0.74200  0.92265  Biso   1.000  O
  O239     1.0000 0.53000  0.74200  0.82344  Biso   1.000  O
  O240     1.0000 0.47000  0.25800  0.92265  Biso   1.000  O
  O241     1.0000 0.53000  0.25800  0.84927  Biso   1.000  O
  O242     1.0000 0.47000  0.74200  0.89682  Biso   1.000  O
  O243     1.0000 0.47000  0.74200  0.84927  Biso   1.000  O
  O244     1.0000 0.53000  0.25800  0.89682  Biso   1.000  O
  O245     1.0000 0.97000  0.75800  0.82344  Biso   1.000  O
  O246     1.0000 0.03000  0.24200  0.92265  Biso   1.000  O
  O247     1.0000 0.03000  0.24200  0.82344  Biso   1.000  O
  O248     1.0000 0.97000  0.75800  0.92265  Biso   1.000  O
  O249     1.0000 0.03000  0.75800  0.84927  Biso   1.000  O
  O250     1.0000 0.97000  0.24200  0.89682  Biso   1.000  O
  O251     1.0000 0.97000  0.24200  0.84927  Biso   1.000  O
  O252     1.0000 0.03000  0.75800  0.89682  Biso   1.000  O
