data_image0
_cell_length_a       5.9119
_cell_length_b       8.4461
_cell_length_c       121.526
_cell_angle_alpha    90
_cell_angle_beta     90
_cell_angle_gamma    90

_symmetry_space_group_name_H-M    "P 1"
_symmetry_int_tables_number       1

loop_
  _symmetry_equiv_pos_as_xyz
  'x, y, z'

loop_
  _atom_site_label
  _atom_site_occupancy
  _atom_site_fract_x
  _atom_site_fract_y
  _atom_site_fract_z
  _atom_site_thermal_displace_type
  _atom_site_B_iso_or_equiv
  _atom_site_type_symbol
  Ir1      1.0000 0.75000  0.75000  0.20034  Biso   1.000  Ir
  Ir2      1.0000 0.25000  0.25000  0.20034  Biso   1.000  Ir
  Ir3      1.0000 0.50000  0.50000  0.18815  Biso   1.000  Ir
  Ir4      1.0000 0.00000  0.00000  0.18815  Biso   1.000  Ir
  O1       1.0000 0.28400  0.48200  0.20012  Biso   1.000  O
  O2       1.0000 0.71600  0.51800  0.20012  Biso   1.000  O
  O3       1.0000 0.78400  0.98200  0.20012  Biso   1.000  O
  O4       1.0000 0.21600  0.01800  0.20012  Biso   1.000  O
  O5       1.0000 0.28100  0.50000  0.17590  Biso   1.000  O
  O6       1.0000 0.71900  0.50000  0.17590  Biso   1.000  O
  O7       1.0000 0.78100  0.00000  0.17590  Biso   1.000  O
  O8       1.0000 0.21900  0.00000  0.17590  Biso   1.000  O
  O9       1.0000 0.53000  0.74200  0.18882  Biso   1.000  O
  O10      1.0000 0.47000  0.25800  0.18882  Biso   1.000  O
  O11      1.0000 0.03000  0.24200  0.18882  Biso   1.000  O
  O12      1.0000 0.97000  0.75800  0.18882  Biso   1.000  O
  Ir5      1.0000 0.25000  0.25000  0.22486  Biso   1.000  Ir
  Ir6      1.0000 0.75000  0.75000  0.34710  Biso   1.000  Ir
  Ir7      1.0000 0.75000  0.75000  0.22486  Biso   1.000  Ir
  Ir8      1.0000 0.25000  0.25000  0.34710  Biso   1.000  Ir
  Ir9      1.0000 0.75000  0.25000  0.27372  Biso   1.000  Ir
  Ir10     1.0000 0.25000  0.75000  0.29824  Biso   1.000  Ir
  Ir11     1.0000 0.25000  0.75000  0.27372  Biso   1.000  Ir
  Ir12     1.0000 0.75000  0.25000  0.29824  Biso   1.000  Ir
  Ir13     1.0000 0.50000  0.50000  0.23705  Biso   1.000  Ir
  Ir14     1.0000 0.50000  0.50000  0.33491  Biso   1.000  Ir
  Ir15     1.0000 0.50000  0.50000  0.26153  Biso   1.000  Ir
  Ir16     1.0000 0.50000  0.50000  0.31043  Biso   1.000  Ir
  Ir17     1.0000 0.00000  0.00000  0.23705  Biso   1.000  Ir
  Ir18     1.0000 0.00000  0.00000  0.33491  Biso   1.000  Ir
  Ir19     1.0000 0.00000  0.00000  0.26153  Biso   1.000  Ir
  Ir20     1.0000 0.00000  0.00000  0.31043  Biso   1.000  Ir
  O13      1.0000 0.71600  0.51800  0.22507  Biso   1.000  O
  O14      1.0000 0.28400  0.48200  0.34689  Biso   1.000  O
  O15      1.0000 0.28400  0.48200  0.22507  Biso   1.000  O
  O16      1.0000 0.71600  0.51800  0.34689  Biso   1.000  O
  O17      1.0000 0.28400  0.51800  0.27350  Biso   1.000  O
  O18      1.0000 0.71600  0.48200  0.29845  Biso   1.000  O
  O19      1.0000 0.71600  0.48200  0.27350  Biso   1.000  O
  O20      1.0000 0.28400  0.51800  0.29845  Biso   1.000  O
  O21      1.0000 0.21600  0.01800  0.22507  Biso   1.000  O
  O22      1.0000 0.78400  0.98200  0.34689  Biso   1.000  O
  O23      1.0000 0.78400  0.98200  0.22507  Biso   1.000  O
  O24      1.0000 0.21600  0.01800  0.34689  Biso   1.000  O
  O25      1.0000 0.78400  0.01800  0.27350  Biso   1.000  O
  O26      1.0000 0.21600  0.98200  0.29845  Biso   1.000  O
  O27      1.0000 0.21600  0.98200  0.27350  Biso   1.000  O
  O28      1.0000 0.78400  0.01800  0.29845  Biso   1.000  O
  O29      1.0000 0.71900  0.50000  0.24929  Biso   1.000  O
  O30      1.0000 0.28100  0.50000  0.32267  Biso   1.000  O
  O31      1.0000 0.28100  0.50000  0.24929  Biso   1.000  O
  O32      1.0000 0.71900  0.50000  0.32267  Biso   1.000  O
  O33      1.0000 0.21900  0.00000  0.24929  Biso   1.000  O
  O34      1.0000 0.78100  0.00000  0.32267  Biso   1.000  O
  O35      1.0000 0.78100  0.00000  0.24929  Biso   1.000  O
  O36      1.0000 0.21900  0.00000  0.32267  Biso   1.000  O
  O37      1.0000 0.01800  0.27100  0.21260  Biso   1.000  O
  O38      1.0000 0.98200  0.72900  0.21260  Biso   1.000  O
  O39      1.0000 0.98200  0.27100  0.28598  Biso   1.000  O
  O40      1.0000 0.01800  0.72900  0.28598  Biso   1.000  O
  O41      1.0000 0.51800  0.77100  0.21260  Biso   1.000  O
  O42      1.0000 0.48200  0.22900  0.21260  Biso   1.000  O
  O43      1.0000 0.48200  0.77100  0.28598  Biso   1.000  O
  O44      1.0000 0.51800  0.22900  0.28598  Biso   1.000  O
  O45      1.0000 0.47000  0.25800  0.23637  Biso   1.000  O
  O46      1.0000 0.53000  0.74200  0.33559  Biso   1.000  O
  O47      1.0000 0.53000  0.74200  0.23637  Biso   1.000  O
  O48      1.0000 0.47000  0.25800  0.33559  Biso   1.000  O
  O49      1.0000 0.53000  0.25800  0.26220  Biso   1.000  O
  O50      1.0000 0.47000  0.74200  0.30976  Biso   1.000  O
  O51      1.0000 0.47000  0.74200  0.26220  Biso   1.000  O
  O52      1.0000 0.53000  0.25800  0.30976  Biso   1.000  O
  O53      1.0000 0.97000  0.75800  0.23637  Biso   1.000  O
  O54      1.0000 0.03000  0.24200  0.33559  Biso   1.000  O
  O55      1.0000 0.03000  0.24200  0.23637  Biso   1.000  O
  O56      1.0000 0.97000  0.75800  0.33559  Biso   1.000  O
  O57      1.0000 0.03000  0.75800  0.26220  Biso   1.000  O
  O58      1.0000 0.97000  0.24200  0.30976  Biso   1.000  O
  O59      1.0000 0.97000  0.24200  0.26220  Biso   1.000  O
  O60      1.0000 0.03000  0.75800  0.30976  Biso   1.000  O
  Ir21     1.0000 0.25000  0.25000  0.37162  Biso   1.000  Ir
  Ir22     1.0000 0.75000  0.75000  0.49387  Biso   1.000  Ir
  Ir23     1.0000 0.75000  0.75000  0.37162  Biso   1.000  Ir
  Ir24     1.0000 0.25000  0.25000  0.49387  Biso   1.000  Ir
  Ir25     1.0000 0.75000  0.25000  0.42049  Biso   1.000  Ir
  Ir26     1.0000 0.25000  0.75000  0.44501  Biso   1.000  Ir
  Ir27     1.0000 0.25000  0.75000  0.42049  Biso   1.000  Ir
  Ir28     1.0000 0.75000  0.25000  0.44501  Biso   1.000  Ir
  Ir29     1.0000 0.50000  0.50000  0.38381  Biso   1.000  Ir
  Ir30     1.0000 0.50000  0.50000  0.48168  Biso   1.000  Ir
  Ir31     1.0000 0.50000  0.50000  0.40830  Biso   1.000  Ir
  Ir32     1.0000 0.50000  0.50000  0.45720  Biso   1.000  Ir
  Ir33     1.0000 0.00000  0.00000  0.38381  Biso   1.000  Ir
  Ir34     1.0000 0.00000  0.00000  0.48168  Biso   1.000  Ir
  Ir35     1.0000 0.00000  0.00000  0.40830  Biso   1.000  Ir
  Ir36     1.0000 0.00000  0.00000  0.45720  Biso   1.000  Ir
  O61      1.0000 0.71600  0.51800  0.37184  Biso   1.000  O
  O62      1.0000 0.28400  0.48200  0.49365  Biso   1.000  O
  O63      1.0000 0.28400  0.48200  0.37184  Biso   1.000  O
  O64      1.0000 0.71600  0.51800  0.49365  Biso   1.000  O
  O65      1.0000 0.28400  0.51800  0.42027  Biso   1.000  O
  O66      1.0000 0.71600  0.48200  0.44522  Biso   1.000  O
  O67      1.0000 0.71600  0.48200  0.42027  Biso   1.000  O
  O68      1.0000 0.28400  0.51800  0.44522  Biso   1.000  O
  O69      1.0000 0.21600  0.01800  0.37184  Biso   1.000  O
  O70      1.0000 0.78400  0.98200  0.49365  Biso   1.000  O
  O71      1.0000 0.78400  0.98200  0.37184  Biso   1.000  O
  O72      1.0000 0.21600  0.01800  0.49365  Biso   1.000  O
  O73      1.0000 0.78400  0.01800  0.42027  Biso   1.000  O
  O74      1.0000 0.21600  0.98200  0.44522  Biso   1.000  O
  O75      1.0000 0.21600  0.98200  0.42027  Biso   1.000  O
  O76      1.0000 0.78400  0.01800  0.44522  Biso   1.000  O
  O77      1.0000 0.71900  0.50000  0.39605  Biso   1.000  O
  O78      1.0000 0.28100  0.50000  0.46944  Biso   1.000  O
  O79      1.0000 0.28100  0.50000  0.39605  Biso   1.000  O
  O80      1.0000 0.71900  0.50000  0.46944  Biso   1.000  O
  O81      1.0000 0.21900  0.00000  0.39605  Biso   1.000  O
  O82      1.0000 0.78100  0.00000  0.46944  Biso   1.000  O
  O83      1.0000 0.78100  0.00000  0.39605  Biso   1.000  O
  O84      1.0000 0.21900  0.00000  0.46944  Biso   1.000  O
  O85      1.0000 0.01800  0.27100  0.35936  Biso   1.000  O
  O86      1.0000 0.98200  0.72900  0.35936  Biso   1.000  O
  O87      1.0000 0.98200  0.27100  0.43275  Biso   1.000  O
  O88      1.0000 0.01800  0.72900  0.43275  Biso   1.000  O
  O89      1.0000 0.51800  0.77100  0.35936  Biso   1.000  O
  O90      1.0000 0.48200  0.22900  0.35936  Biso   1.000  O
  O91      1.0000 0.48200  0.77100  0.43275  Biso   1.000  O
  O92      1.0000 0.51800  0.22900  0.43275  Biso   1.000  O
  O93      1.0000 0.47000  0.25800  0.38314  Biso   1.000  O
  O94      1.0000 0.53000  0.74200  0.48235  Biso   1.000  O
  O95      1.0000 0.53000  0.74200  0.38314  Biso   1.000  O
  O96      1.0000 0.47000  0.25800  0.48235  Biso   1.000  O
  O97      1.0000 0.53000  0.25800  0.40897  Biso   1.000  O
  O98      1.0000 0.47000  0.74200  0.45652  Biso   1.000  O
  O99      1.0000 0.47000  0.74200  0.40897  Biso   1.000  O
  O100     1.0000 0.53000  0.25800  0.45652  Biso   1.000  O
  O101     1.0000 0.97000  0.75800  0.38314  Biso   1.000  O
  O102     1.0000 0.03000  0.24200  0.48235  Biso   1.000  O
  O103     1.0000 0.03000  0.24200  0.38314  Biso   1.000  O
  O104     1.0000 0.97000  0.75800  0.48235  Biso   1.000  O
  O105     1.0000 0.03000  0.75800  0.40897  Biso   1.000  O
  O106     1.0000 0.97000  0.24200  0.45652  Biso   1.000  O
  O107     1.0000 0.97000  0.24200  0.40897  Biso   1.000  O
  O108     1.0000 0.03000  0.75800  0.45652  Biso   1.000  O
  Ir37     1.0000 0.25000  0.25000  0.51839  Biso   1.000  Ir
  Ir38     1.0000 0.75000  0.75000  0.51839  Biso   1.000  Ir
  Ir39     1.0000 0.75000  0.25000  0.56725  Biso   1.000  Ir
  Ir40     1.0000 0.25000  0.75000  0.56725  Biso   1.000  Ir
  Ir41     1.0000 0.50000  0.50000  0.53058  Biso   1.000  Ir
  Ir42     1.0000 0.50000  0.50000  0.55506  Biso   1.000  Ir
  Ir43     1.0000 0.00000  0.00000  0.53058  Biso   1.000  Ir
  Ir44     1.0000 0.00000  0.00000  0.55506  Biso   1.000  Ir
  O109     1.0000 0.71600  0.51800  0.51860  Biso   1.000  O
  O110     1.0000 0.28400  0.48200  0.51860  Biso   1.000  O
  O111     1.0000 0.28400  0.51800  0.56704  Biso   1.000  O
  O112     1.0000 0.71600  0.48200  0.56704  Biso   1.000  O
  O113     1.0000 0.21600  0.01800  0.51860  Biso   1.000  O
  O114     1.0000 0.78400  0.98200  0.51860  Biso   1.000  O
  O115     1.0000 0.78400  0.01800  0.56704  Biso   1.000  O
  O116     1.0000 0.21600  0.98200  0.56704  Biso   1.000  O
  O117     1.0000 0.71900  0.50000  0.54282  Biso   1.000  O
  O118     1.0000 0.28100  0.50000  0.54282  Biso   1.000  O
  O119     1.0000 0.21900  0.00000  0.54282  Biso   1.000  O
  O120     1.0000 0.78100  0.00000  0.54282  Biso   1.000  O
  O121     1.0000 0.01800  0.27100  0.50613  Biso   1.000  O
  O122     1.0000 0.98200  0.72900  0.50613  Biso   1.000  O
  O123     1.0000 0.51800  0.77100  0.50613  Biso   1.000  O
  O124     1.0000 0.48200  0.22900  0.50613  Biso   1.000  O
  O125     1.0000 0.47000  0.25800  0.52991  Biso   1.000  O
  O126     1.0000 0.53000  0.74200  0.52991  Biso   1.000  O
  O127     1.0000 0.53000  0.25800  0.55574  Biso   1.000  O
  O128     1.0000 0.47000  0.74200  0.55574  Biso   1.000  O
  O129     1.0000 0.97000  0.75800  0.52991  Biso   1.000  O
  O130     1.0000 0.03000  0.24200  0.52991  Biso   1.000  O
  O131     1.0000 0.03000  0.75800  0.55574  Biso   1.000  O
  O132     1.0000 0.97000  0.24200  0.55574  Biso   1.000  O
