data_image0
_cell_length_a       3.61064
_cell_length_b       3.61064
_cell_length_c       3.61064
_cell_angle_alpha    90
_cell_angle_beta     90
_cell_angle_gamma    90

_symmetry_space_group_name_H-M    "P 1"
_symmetry_int_tables_number       1

loop_
  _symmetry_equiv_pos_as_xyz
  'x, y, z'

loop_
  _atom_site_label
  _atom_site_occupancy
  _atom_site_fract_x
  _atom_site_fract_y
  _atom_site_fract_z
  _atom_site_thermal_displace_type
  _atom_site_B_iso_or_equiv
  _atom_site_type_symbol
  Ir1      1.0000 0.00033  0.99991  0.00043  Biso   1.000  Ir
  Ir2      1.0000 0.50102  0.49984  0.49984  Biso   1.000  Ir
  O1       1.0000 0.00106  0.50051  0.49969  Biso   1.000  O
  O2       1.0000 0.50036  0.49969  0.99969  Biso   1.000  O
  O3       1.0000 0.50016  0.99872  0.49884  Biso   1.000  O
  O4       1.0000 0.49962  0.99932  0.00021  Biso   1.000  O
  O5       1.0000 0.99939  0.99905  0.50098  Biso   1.000  O
  O6       1.0000 0.99985  0.50005  0.99905  Biso   1.000  O
