data_image0
_cell_length_a       8.61194
_cell_length_b       5.1456
_cell_length_c       38
_cell_angle_alpha    90
_cell_angle_beta     90
_cell_angle_gamma    93.4064

_symmetry_space_group_name_H-M    "P 1"
_symmetry_int_tables_number       1

loop_
  _symmetry_equiv_pos_as_xyz
  'x, y, z'

loop_
  _atom_site_label
  _atom_site_occupancy
  _atom_site_fract_x
  _atom_site_fract_y
  _atom_site_fract_z
  _atom_site_thermal_displace_type
  _atom_site_B_iso_or_equiv
  _atom_site_type_symbol
  O1       1.0000 0.61285  0.80088  0.28032  Biso   1.000  O
  O2       1.0000 0.11285  0.30088  0.28032  Biso   1.000  O
  O3       1.0000 0.56307  0.29593  0.29664  Biso   1.000  O
  O4       1.0000 0.06307  0.79594  0.29664  Biso   1.000  O
  Ir1      1.0000 0.45504  0.96572  0.30676  Biso   1.000  Ir
  Ir2      1.0000 0.95505  0.46571  0.30676  Biso   1.000  Ir
  O5       1.0000 0.84702  0.13549  0.31689  Biso   1.000  O
  O6       1.0000 0.34702  0.63549  0.31689  Biso   1.000  O
  O7       1.0000 0.29723  0.13053  0.33321  Biso   1.000  O
  O8       1.0000 0.79723  0.63053  0.33321  Biso   1.000  O
  O9       1.0000 0.57460  0.95273  0.34952  Biso   1.000  O
  O10      1.0000 0.07461  0.45273  0.34952  Biso   1.000  O
  Ir3      1.0000 0.79373  0.94967  0.35964  Biso   1.000  Ir
  Ir4      1.0000 0.29374  0.44966  0.35964  Biso   1.000  Ir
  O11      1.0000 0.51286  0.44659  0.36976  Biso   1.000  O
  O12      1.0000 0.01286  0.94661  0.36976  Biso   1.000  O
  O13      1.0000 0.29022  0.76879  0.38608  Biso   1.000  O
  O14      1.0000 0.79021  0.26879  0.38608  Biso   1.000  O
  O15      1.0000 0.74043  0.76385  0.40240  Biso   1.000  O
  O16      1.0000 0.24043  0.26384  0.40240  Biso   1.000  O
  Ir5      1.0000 0.13241  0.93362  0.41252  Biso   1.000  Ir
  Ir6      1.0000 0.63241  0.43362  0.41252  Biso   1.000  Ir
  O17      1.0000 0.52438  0.10341  0.42265  Biso   1.000  O
  O18      1.0000 0.02438  0.60341  0.42265  Biso   1.000  O
  O19      1.0000 0.47459  0.59844  0.43897  Biso   1.000  O
  O20      1.0000 0.97460  0.09844  0.43897  Biso   1.000  O
  O21      1.0000 0.25197  0.92066  0.45528  Biso   1.000  O
  O22      1.0000 0.75197  0.42065  0.45528  Biso   1.000  O
  Ir7      1.0000 0.47109  0.91759  0.46540  Biso   1.000  Ir
  Ir8      1.0000 0.97110  0.41758  0.46540  Biso   1.000  Ir
  O23      1.0000 0.69022  0.91452  0.47552  Biso   1.000  O
  O24      1.0000 0.19022  0.41451  0.47552  Biso   1.000  O
  O25      1.0000 0.46757  0.23671  0.49184  Biso   1.000  O
  O26      1.0000 0.96758  0.73671  0.49184  Biso   1.000  O
  O27      1.0000 0.41780  0.73177  0.50816  Biso   1.000  O
  O28      1.0000 0.91780  0.23176  0.50816  Biso   1.000  O
  Ir9      1.0000 0.80978  0.90154  0.51828  Biso   1.000  Ir
  Ir10     1.0000 0.30977  0.40153  0.51828  Biso   1.000  Ir
  O29      1.0000 0.20175  0.07132  0.52841  Biso   1.000  O
  O30      1.0000 0.70175  0.57132  0.52841  Biso   1.000  O
  O31      1.0000 0.65196  0.06636  0.54472  Biso   1.000  O
  O32      1.0000 0.15196  0.56636  0.54472  Biso   1.000  O
  O33      1.0000 0.42934  0.38857  0.56103  Biso   1.000  O
  O34      1.0000 0.92934  0.88858  0.56103  Biso   1.000  O
  Ir11     1.0000 0.14846  0.88551  0.57116  Biso   1.000  Ir
  Ir12     1.0000 0.64845  0.38550  0.57116  Biso   1.000  Ir
  O35      1.0000 0.36758  0.88243  0.58128  Biso   1.000  O
  O36      1.0000 0.86758  0.38242  0.58128  Biso   1.000  O
  O37      1.0000 0.64493  0.70461  0.59760  Biso   1.000  O
  O38      1.0000 0.14494  0.20461  0.59760  Biso   1.000  O
  O39      1.0000 0.59516  0.19968  0.61392  Biso   1.000  O
  O40      1.0000 0.09516  0.69969  0.61392  Biso   1.000  O
  Ir13     1.0000 0.48713  0.86946  0.62404  Biso   1.000  Ir
  Ir14     1.0000 0.98713  0.36945  0.62404  Biso   1.000  Ir
  O41      1.0000 0.87911  0.03924  0.63416  Biso   1.000  O
  O42      1.0000 0.37911  0.53923  0.63416  Biso   1.000  O
  O43      1.0000 0.32932  0.03428  0.65048  Biso   1.000  O
  O44      1.0000 0.82932  0.53428  0.65048  Biso   1.000  O
  O45      1.0000 0.60669  0.85649  0.66679  Biso   1.000  O
  O46      1.0000 0.10669  0.35648  0.66679  Biso   1.000  O
  Ir15     1.0000 0.82581  0.85342  0.67692  Biso   1.000  Ir
  Ir16     1.0000 0.32581  0.35341  0.67692  Biso   1.000  Ir
  O47      1.0000 0.54494  0.35034  0.68704  Biso   1.000  O
  O48      1.0000 0.04494  0.85035  0.68704  Biso   1.000  O
  O49      1.0000 0.82230  0.17253  0.70336  Biso   1.000  O
  O50      1.0000 0.32231  0.67253  0.70336  Biso   1.000  O
  O51      1.0000 0.27252  0.16759  0.71968  Biso   1.000  O
  O52      1.0000 0.77252  0.66759  0.71968  Biso   1.000  O
