data_image0
_cell_length_a       3.72125
_cell_length_b       3.72125
_cell_length_c       25.8695
_cell_angle_alpha    90
_cell_angle_beta     90
_cell_angle_gamma    90

_symmetry_space_group_name_H-M    "P 1"
_symmetry_int_tables_number       1

loop_
  _symmetry_equiv_pos_as_xyz
  'x, y, z'

loop_
  _atom_site_label
  _atom_site_occupancy
  _atom_site_fract_x
  _atom_site_fract_y
  _atom_site_fract_z
  _atom_site_thermal_displace_type
  _atom_site_B_iso_or_equiv
  _atom_site_type_symbol
  O1       1.0000 0.00000  0.00000  0.99860  Biso   1.000  O
  O2       1.0000 0.00000  0.00000  0.28569  Biso   1.000  O
  O3       1.0000 0.50000  0.00000  0.63904  Biso   1.000  O
  O4       1.0000 0.00000  0.50000  0.63904  Biso   1.000  O
  O5       1.0000 0.50000  0.00000  0.92616  Biso   1.000  O
  O6       1.0000 0.00000  0.50000  0.92616  Biso   1.000  O
  O7       1.0000 0.50000  0.50000  0.56840  Biso   1.000  O
  O8       1.0000 0.50000  0.00000  0.78162  Biso   1.000  O
  O9       1.0000 0.00000  0.50000  0.78162  Biso   1.000  O
  O10      1.0000 0.50000  0.00000  0.35701  Biso   1.000  O
  O11      1.0000 0.00000  0.50000  0.35701  Biso   1.000  O
  O12      1.0000 0.50000  0.00000  0.21422  Biso   1.000  O
  O13      1.0000 0.00000  0.50000  0.21422  Biso   1.000  O
  O14      1.0000 0.50000  0.00000  0.49828  Biso   1.000  O
  O15      1.0000 0.00000  0.50000  0.49828  Biso   1.000  O
  O16      1.0000 0.50000  0.00000  0.07059  Biso   1.000  O
  O17      1.0000 0.00000  0.50000  0.07059  Biso   1.000  O
  O18      1.0000 0.50000  0.50000  0.70966  Biso   1.000  O
  O19      1.0000 0.00000  0.00000  0.14280  Biso   1.000  O
  O20      1.0000 0.50000  0.50000  0.85386  Biso   1.000  O
  O21      1.0000 0.00000  0.00000  0.42801  Biso   1.000  O
  Ir1      1.0000 0.50000  0.50000  0.42786  Biso   1.000  Ir
  Ir2      1.0000 0.50000  0.50000  0.14234  Biso   1.000  Ir
  Ir3      1.0000 0.00000  0.00000  0.71012  Biso   1.000  Ir
  Ir4      1.0000 0.00000  0.00000  0.85390  Biso   1.000  Ir
  Ir5      1.0000 0.00000  0.00000  0.56836  Biso   1.000  Ir
  Ir6      1.0000 0.50000  0.50000  0.99834  Biso   1.000  Ir
  Ir7      1.0000 0.50000  0.50000  0.28589  Biso   1.000  Ir
