data_image0
_cell_length_a       5.82112
_cell_length_b       5.82111
_cell_length_c       17.231
_cell_angle_alpha    90
_cell_angle_beta     90
_cell_angle_gamma    120

_symmetry_space_group_name_H-M    "P 1"
_symmetry_int_tables_number       1

loop_
  _symmetry_equiv_pos_as_xyz
  'x, y, z'

loop_
  _atom_site_label
  _atom_site_occupancy
  _atom_site_fract_x
  _atom_site_fract_y
  _atom_site_fract_z
  _atom_site_thermal_displace_type
  _atom_site_B_iso_or_equiv
  _atom_site_type_symbol
  O1       1.0000 0.32738  0.32700  0.43772  Biso   1.000  O
  O2       1.0000 0.67300  0.00037  0.43772  Biso   1.000  O
  O3       1.0000 0.99962  0.67262  0.43772  Biso   1.000  O
  O4       1.0000 0.67300  0.67262  0.56228  Biso   1.000  O
  O5       1.0000 0.99962  0.32700  0.56228  Biso   1.000  O
  O6       1.0000 0.32738  0.00037  0.56228  Biso   1.000  O
  O7       1.0000 0.33377  0.33896  0.68733  Biso   1.000  O
  O8       1.0000 0.66104  0.99482  0.68733  Biso   1.000  O
  O9       1.0000 0.00518  0.66623  0.68733  Biso   1.000  O
  O10      1.0000 0.66104  0.66623  0.31267  Biso   1.000  O
  O11      1.0000 0.00518  0.33896  0.31267  Biso   1.000  O
  O12      1.0000 0.33377  0.99482  0.31267  Biso   1.000  O
  O13      1.0000 0.33327  0.34074  0.18765  Biso   1.000  O
  O14      1.0000 0.65926  0.99253  0.18765  Biso   1.000  O
  O15      1.0000 0.00747  0.66673  0.18765  Biso   1.000  O
  O16      1.0000 0.65926  0.66673  0.81235  Biso   1.000  O
  O17      1.0000 0.00747  0.34074  0.81235  Biso   1.000  O
  O18      1.0000 0.33327  0.99253  0.81235  Biso   1.000  O
  O19      1.0000 0.00663  0.33982  0.06259  Biso   1.000  O
  O20      1.0000 0.66018  0.66680  0.06259  Biso   1.000  O
  O21      1.0000 0.33320  0.99337  0.06259  Biso   1.000  O
  O22      1.0000 0.66018  0.99337  0.93741  Biso   1.000  O
  O23      1.0000 0.33320  0.33982  0.93741  Biso   1.000  O
  O24      1.0000 0.00663  0.66680  0.93741  Biso   1.000  O
  Ir1      1.0000 0.00000  0.00000  0.74946  Biso   1.000  Ir
  Ir2      1.0000 0.00000  0.00000  0.25054  Biso   1.000  Ir
  Ir3      1.0000 0.00000  0.00000  0.00000  Biso   1.000  Ir
  Ir4      1.0000 0.33333  0.66667  0.50000  Biso   1.000  Ir
  Ir5      1.0000 0.66667  0.33333  0.62465  Biso   1.000  Ir
  Ir6      1.0000 0.66667  0.33333  0.37535  Biso   1.000  Ir
  Ir7      1.0000 0.66667  0.33333  0.87500  Biso   1.000  Ir
  Ir8      1.0000 0.66667  0.33333  0.12500  Biso   1.000  Ir
