data_image0
_cell_length_a       6.89357
_cell_length_b       6.95867
_cell_length_c       4.51444
_cell_angle_alpha    90
_cell_angle_beta     90
_cell_angle_gamma    90

_symmetry_space_group_name_H-M    "P 1"
_symmetry_int_tables_number       1

loop_
  _symmetry_equiv_pos_as_xyz
  'x, y, z'

loop_
  _atom_site_label
  _atom_site_occupancy
  _atom_site_fract_x
  _atom_site_fract_y
  _atom_site_fract_z
  _atom_site_thermal_displace_type
  _atom_site_B_iso_or_equiv
  _atom_site_type_symbol
  O1       1.0000 0.06918  0.69209  0.71969  Biso   1.000  O
  O2       1.0000 0.93082  0.30791  0.71969  Biso   1.000  O
  O3       1.0000 0.56918  0.30791  0.71969  Biso   1.000  O
  O4       1.0000 0.43082  0.69209  0.71969  Biso   1.000  O
  O5       1.0000 0.75000  0.47331  0.16293  Biso   1.000  O
  O6       1.0000 0.25000  0.52669  0.16293  Biso   1.000  O
  O7       1.0000 0.06918  0.19209  0.21969  Biso   1.000  O
  O8       1.0000 0.93082  0.80791  0.21969  Biso   1.000  O
  O9       1.0000 0.56918  0.80791  0.21969  Biso   1.000  O
  O10      1.0000 0.43082  0.19209  0.21969  Biso   1.000  O
  O11      1.0000 0.75000  0.97331  0.66293  Biso   1.000  O
  O12      1.0000 0.25000  0.02669  0.66293  Biso   1.000  O
  Ir1      1.0000 0.75000  0.19158  0.03029  Biso   1.000  Ir
  Ir2      1.0000 0.25000  0.80842  0.03029  Biso   1.000  Ir
  Ir3      1.0000 0.75000  0.69158  0.53029  Biso   1.000  Ir
  Ir4      1.0000 0.25000  0.30842  0.53029  Biso   1.000  Ir
