data_image0
_cell_length_a       7.70436
_cell_length_b       7.70436
_cell_length_c       3.89855
_cell_angle_alpha    90
_cell_angle_beta     90
_cell_angle_gamma    90

_symmetry_space_group_name_H-M    "P 1"
_symmetry_int_tables_number       1

loop_
  _symmetry_equiv_pos_as_xyz
  'x, y, z'

loop_
  _atom_site_label
  _atom_site_occupancy
  _atom_site_fract_x
  _atom_site_fract_y
  _atom_site_fract_z
  _atom_site_thermal_displace_type
  _atom_site_B_iso_or_equiv
  _atom_site_type_symbol
  O1       1.0000 0.74456  0.24456  0.50774  Biso   1.000  O
  O2       1.0000 0.25544  0.75544  0.50774  Biso   1.000  O
  O3       1.0000 0.24456  0.25544  0.49226  Biso   1.000  O
  O4       1.0000 0.75544  0.74456  0.49226  Biso   1.000  O
  O5       1.0000 0.50420  0.75017  0.00113  Biso   1.000  O
  O6       1.0000 0.49580  0.24983  0.00113  Biso   1.000  O
  O7       1.0000 0.75017  0.49580  0.99887  Biso   1.000  O
  O8       1.0000 0.24983  0.50420  0.99887  Biso   1.000  O
  O9       1.0000 0.99580  0.25017  0.99887  Biso   1.000  O
  O10      1.0000 0.00420  0.74983  0.99887  Biso   1.000  O
  O11      1.0000 0.74983  0.99580  0.00113  Biso   1.000  O
  O12      1.0000 0.25017  0.00420  0.00113  Biso   1.000  O
  Ir1      1.0000 0.74017  0.24017  0.03588  Biso   1.000  Ir
  Ir2      1.0000 0.25983  0.75983  0.03588  Biso   1.000  Ir
  Ir3      1.0000 0.24017  0.25983  0.96412  Biso   1.000  Ir
  Ir4      1.0000 0.75983  0.74017  0.96412  Biso   1.000  Ir
