data_image0
_cell_length_a       6.88175
_cell_length_b       9.77259
_cell_length_c       5.60172
_cell_angle_alpha    90
_cell_angle_beta     90
_cell_angle_gamma    90

_symmetry_space_group_name_H-M    "P 1"
_symmetry_int_tables_number       1

loop_
  _symmetry_equiv_pos_as_xyz
  'x, y, z'

loop_
  _atom_site_label
  _atom_site_occupancy
  _atom_site_fract_x
  _atom_site_fract_y
  _atom_site_fract_z
  _atom_site_thermal_displace_type
  _atom_site_B_iso_or_equiv
  _atom_site_type_symbol
  Ir1      1.0000 0.75000  0.39376  0.83248  Biso   1.000  Ir
  Ir2      1.0000 0.25000  0.10624  0.33248  Biso   1.000  Ir
  Ir3      1.0000 0.75000  0.89376  0.33248  Biso   1.000  Ir
  Ir4      1.0000 0.25000  0.60624  0.83248  Biso   1.000  Ir
  O1       1.0000 0.00000  0.00000  0.45490  Biso   1.000  O
  O2       1.0000 0.50000  0.00000  0.45490  Biso   1.000  O
  O3       1.0000 0.75000  0.37633  0.49147  Biso   1.000  O
  O4       1.0000 0.25000  0.12367  0.99147  Biso   1.000  O
  O5       1.0000 0.75000  0.21359  0.97115  Biso   1.000  O
  O6       1.0000 0.25000  0.28641  0.47115  Biso   1.000  O
  O7       1.0000 0.00000  0.50000  0.95490  Biso   1.000  O
  O8       1.0000 0.50000  0.50000  0.95490  Biso   1.000  O
  O9       1.0000 0.75000  0.87633  0.99147  Biso   1.000  O
  O10      1.0000 0.25000  0.62367  0.49147  Biso   1.000  O
  O11      1.0000 0.75000  0.71359  0.47115  Biso   1.000  O
  O12      1.0000 0.25000  0.78641  0.97115  Biso   1.000  O
