data_image0
_cell_length_a       4.92604
_cell_length_b       5.2189
_cell_length_c       8.4653
_cell_angle_alpha    90
_cell_angle_beta     90
_cell_angle_gamma    90

_symmetry_space_group_name_H-M    "P 1"
_symmetry_int_tables_number       1

loop_
  _symmetry_equiv_pos_as_xyz
  'x, y, z'

loop_
  _atom_site_label
  _atom_site_occupancy
  _atom_site_fract_x
  _atom_site_fract_y
  _atom_site_fract_z
  _atom_site_thermal_displace_type
  _atom_site_B_iso_or_equiv
  _atom_site_type_symbol
  O1       1.0000 0.75011  0.36142  0.74292  Biso   1.000  O
  O2       1.0000 0.24989  0.63858  0.74292  Biso   1.000  O
  O3       1.0000 0.25011  0.13858  0.24292  Biso   1.000  O
  O4       1.0000 0.74989  0.86142  0.24292  Biso   1.000  O
  O5       1.0000 0.71267  0.31475  0.41915  Biso   1.000  O
  O6       1.0000 0.28733  0.68525  0.41915  Biso   1.000  O
  O7       1.0000 0.21267  0.18525  0.91915  Biso   1.000  O
  O8       1.0000 0.78733  0.81475  0.91915  Biso   1.000  O
  O9       1.0000 0.78747  0.31482  0.06685  Biso   1.000  O
  O10      1.0000 0.21253  0.68518  0.06685  Biso   1.000  O
  O11      1.0000 0.28747  0.18518  0.56685  Biso   1.000  O
  O12      1.0000 0.71253  0.81482  0.56685  Biso   1.000  O
  Ir1      1.0000 0.00000  0.50000  0.90043  Biso   1.000  Ir
  Ir2      1.0000 0.50000  0.00000  0.40043  Biso   1.000  Ir
  Ir3      1.0000 0.00000  0.00000  0.08550  Biso   1.000  Ir
  Ir4      1.0000 0.50000  0.50000  0.58550  Biso   1.000  Ir
