data_image0
_cell_length_a       11.4011
_cell_length_b       11.4011
_cell_length_c       9.76236
_cell_angle_alpha    90
_cell_angle_beta     90
_cell_angle_gamma    120

_symmetry_space_group_name_H-M    "P 1"
_symmetry_int_tables_number       1

loop_
  _symmetry_equiv_pos_as_xyz
  'x, y, z'

loop_
  _atom_site_label
  _atom_site_occupancy
  _atom_site_fract_x
  _atom_site_fract_y
  _atom_site_fract_z
  _atom_site_thermal_displace_type
  _atom_site_B_iso_or_equiv
  _atom_site_type_symbol
  Ir1      1.0000 0.00000  0.00000  0.25000  Biso   1.000  Ir
  Ir2      1.0000 0.00000  0.00000  0.75000  Biso   1.000  Ir
  Ir3      1.0000 0.54320  0.08639  0.25000  Biso   1.000  Ir
  Ir4      1.0000 0.91361  0.45680  0.25000  Biso   1.000  Ir
  Ir5      1.0000 0.54320  0.45680  0.25000  Biso   1.000  Ir
  Ir6      1.0000 0.45680  0.91361  0.75000  Biso   1.000  Ir
  Ir7      1.0000 0.08639  0.54320  0.75000  Biso   1.000  Ir
  Ir8      1.0000 0.45680  0.54320  0.75000  Biso   1.000  Ir
  O1       1.0000 0.83151  0.66303  0.50773  Biso   1.000  O
  O2       1.0000 0.33697  0.16849  0.50773  Biso   1.000  O
  O3       1.0000 0.83151  0.16849  0.50773  Biso   1.000  O
  O4       1.0000 0.16849  0.33697  0.00773  Biso   1.000  O
  O5       1.0000 0.66303  0.83151  0.00773  Biso   1.000  O
  O6       1.0000 0.16849  0.83151  0.00773  Biso   1.000  O
  O7       1.0000 0.66303  0.83151  0.49227  Biso   1.000  O
  O8       1.0000 0.16849  0.33697  0.49227  Biso   1.000  O
  O9       1.0000 0.16849  0.83151  0.49227  Biso   1.000  O
  O10      1.0000 0.33697  0.16849  0.99227  Biso   1.000  O
  O11      1.0000 0.83151  0.66303  0.99227  Biso   1.000  O
  O12      1.0000 0.83151  0.16849  0.99227  Biso   1.000  O
  O13      1.0000 0.33333  0.66667  0.49096  Biso   1.000  O
  O14      1.0000 0.66667  0.33333  0.99096  Biso   1.000  O
  O15      1.0000 0.66667  0.33333  0.50904  Biso   1.000  O
  O16      1.0000 0.33333  0.66667  0.00904  Biso   1.000  O
  O17      1.0000 0.23435  0.46870  0.25000  Biso   1.000  O
  O18      1.0000 0.53130  0.76565  0.25000  Biso   1.000  O
  O19      1.0000 0.23435  0.76565  0.25000  Biso   1.000  O
  O20      1.0000 0.76565  0.53130  0.75000  Biso   1.000  O
  O21      1.0000 0.46870  0.23435  0.75000  Biso   1.000  O
  O22      1.0000 0.76565  0.23435  0.75000  Biso   1.000  O
  O23      1.0000 0.00000  0.00000  0.00000  Biso   1.000  O
  O24      1.0000 0.00000  0.00000  0.50000  Biso   1.000  O
