data_image0
_cell_length_a       22.3629
_cell_length_b       19.6463
_cell_length_c       8.6141
_cell_angle_alpha    90
_cell_angle_beta     97.0185
_cell_angle_gamma    90

_symmetry_space_group_name_H-M    "P 1"
_symmetry_int_tables_number       1

loop_
  _symmetry_equiv_pos_as_xyz
  'x, y, z'

loop_
  _atom_site_label
  _atom_site_occupancy
  _atom_site_fract_x
  _atom_site_fract_y
  _atom_site_fract_z
  _atom_site_thermal_displace_type
  _atom_site_B_iso_or_equiv
  _atom_site_type_symbol
  Ir1      1.0000 0.69724  0.29792  0.90817  Biso   1.000  Ir
  Ir2      1.0000 0.69724  0.70208  0.40817  Biso   1.000  Ir
  Ir3      1.0000 0.39694  0.34155  0.29162  Biso   1.000  Ir
  Ir4      1.0000 0.39694  0.65845  0.79162  Biso   1.000  Ir
  Ir5      1.0000 0.52621  0.16934  0.55126  Biso   1.000  Ir
  Ir6      1.0000 0.52621  0.83066  0.05126  Biso   1.000  Ir
  Ir7      1.0000 0.06541  0.02526  0.14175  Biso   1.000  Ir
  Ir8      1.0000 0.06541  0.97474  0.64175  Biso   1.000  Ir
  Ir9      1.0000 0.19724  0.79792  0.90817  Biso   1.000  Ir
  Ir10     1.0000 0.19724  0.20208  0.40817  Biso   1.000  Ir
  Ir11     1.0000 0.89694  0.84155  0.29162  Biso   1.000  Ir
  Ir12     1.0000 0.89694  0.15845  0.79162  Biso   1.000  Ir
  Ir13     1.0000 0.02621  0.66934  0.55126  Biso   1.000  Ir
  Ir14     1.0000 0.02621  0.33066  0.05126  Biso   1.000  Ir
  Ir15     1.0000 0.56541  0.52526  0.14175  Biso   1.000  Ir
  Ir16     1.0000 0.56541  0.47474  0.64175  Biso   1.000  Ir
  O1       1.0000 0.96946  0.01625  0.95564  Biso   1.000  O
  O2       1.0000 0.96946  0.98375  0.45564  Biso   1.000  O
  O3       1.0000 0.43922  0.41149  0.88037  Biso   1.000  O
  O4       1.0000 0.43922  0.58851  0.38038  Biso   1.000  O
  O5       1.0000 0.61787  0.15819  0.74381  Biso   1.000  O
  O6       1.0000 0.61787  0.84181  0.24381  Biso   1.000  O
  O7       1.0000 0.69332  0.04258  0.38532  Biso   1.000  O
  O8       1.0000 0.69332  0.95742  0.88532  Biso   1.000  O
  O9       1.0000 0.40001  0.31771  0.78847  Biso   1.000  O
  O10      1.0000 0.40001  0.68229  0.28847  Biso   1.000  O
  O11      1.0000 0.65195  0.05283  0.80658  Biso   1.000  O
  O12      1.0000 0.65195  0.94717  0.30658  Biso   1.000  O
  O13      1.0000 0.38939  0.24736  0.26698  Biso   1.000  O
  O14      1.0000 0.38939  0.75264  0.76698  Biso   1.000  O
  O15      1.0000 0.27964  0.21320  0.06542  Biso   1.000  O
  O16      1.0000 0.27964  0.78680  0.56542  Biso   1.000  O
  O17      1.0000 0.40493  0.03104  0.82609  Biso   1.000  O
  O18      1.0000 0.40493  0.96896  0.32609  Biso   1.000  O
  O19      1.0000 0.31159  0.07330  0.63606  Biso   1.000  O
  O20      1.0000 0.31159  0.92670  0.13606  Biso   1.000  O
  O21      1.0000 0.18104  0.17081  0.88417  Biso   1.000  O
  O22      1.0000 0.18104  0.82919  0.38417  Biso   1.000  O
  O23      1.0000 0.20800  0.10748  0.42411  Biso   1.000  O
  O24      1.0000 0.20800  0.89252  0.92411  Biso   1.000  O
  O25      1.0000 0.46946  0.51625  0.95564  Biso   1.000  O
  O26      1.0000 0.46946  0.48375  0.45564  Biso   1.000  O
  O27      1.0000 0.93922  0.91149  0.88037  Biso   1.000  O
  O28      1.0000 0.93922  0.08851  0.38038  Biso   1.000  O
  O29      1.0000 0.11787  0.65819  0.74381  Biso   1.000  O
  O30      1.0000 0.11787  0.34181  0.24381  Biso   1.000  O
  O31      1.0000 0.19332  0.54258  0.38532  Biso   1.000  O
  O32      1.0000 0.19332  0.45742  0.88532  Biso   1.000  O
  O33      1.0000 0.90001  0.81771  0.78847  Biso   1.000  O
  O34      1.0000 0.90001  0.18229  0.28847  Biso   1.000  O
  O35      1.0000 0.15195  0.55283  0.80658  Biso   1.000  O
  O36      1.0000 0.15195  0.44717  0.30658  Biso   1.000  O
  O37      1.0000 0.88939  0.74736  0.26698  Biso   1.000  O
  O38      1.0000 0.88939  0.25264  0.76698  Biso   1.000  O
  O39      1.0000 0.77964  0.71320  0.06542  Biso   1.000  O
  O40      1.0000 0.77964  0.28680  0.56542  Biso   1.000  O
  O41      1.0000 0.90493  0.53104  0.82609  Biso   1.000  O
  O42      1.0000 0.90493  0.46896  0.32609  Biso   1.000  O
  O43      1.0000 0.81159  0.57330  0.63606  Biso   1.000  O
  O44      1.0000 0.81159  0.42670  0.13606  Biso   1.000  O
  O45      1.0000 0.68104  0.67081  0.88417  Biso   1.000  O
  O46      1.0000 0.68104  0.32919  0.38417  Biso   1.000  O
  O47      1.0000 0.70800  0.60748  0.42411  Biso   1.000  O
  O48      1.0000 0.70800  0.39252  0.92411  Biso   1.000  O
