data_image0
_cell_length_a       6.65455
_cell_length_b       6.65455
_cell_length_c       16.6169
_cell_angle_alpha    90
_cell_angle_beta     90
_cell_angle_gamma    120

_symmetry_space_group_name_H-M    "P 1"
_symmetry_int_tables_number       1

loop_
  _symmetry_equiv_pos_as_xyz
  'x, y, z'

loop_
  _atom_site_label
  _atom_site_occupancy
  _atom_site_fract_x
  _atom_site_fract_y
  _atom_site_fract_z
  _atom_site_thermal_displace_type
  _atom_site_B_iso_or_equiv
  _atom_site_type_symbol
  Ir1      1.0000 0.24060  0.48120  0.25000  Biso   1.000  Ir
  Ir2      1.0000 0.51880  0.75940  0.58333  Biso   1.000  Ir
  Ir3      1.0000 0.24060  0.75940  0.91667  Biso   1.000  Ir
  Ir4      1.0000 0.75940  0.51880  0.75000  Biso   1.000  Ir
  Ir5      1.0000 0.48120  0.24060  0.08333  Biso   1.000  Ir
  Ir6      1.0000 0.75940  0.24060  0.41667  Biso   1.000  Ir
  O1       1.0000 0.77605  0.46394  0.16237  Biso   1.000  O
  O2       1.0000 0.53606  0.31211  0.49570  Biso   1.000  O
  O3       1.0000 0.68789  0.22395  0.82903  Biso   1.000  O
  O4       1.0000 0.22395  0.53606  0.66237  Biso   1.000  O
  O5       1.0000 0.46394  0.68789  0.99570  Biso   1.000  O
  O6       1.0000 0.31211  0.77605  0.32904  Biso   1.000  O
  O7       1.0000 0.46394  0.77605  0.17097  Biso   1.000  O
  O8       1.0000 0.31211  0.53606  0.83763  Biso   1.000  O
  O9       1.0000 0.22395  0.68789  0.50430  Biso   1.000  O
  O10      1.0000 0.53606  0.22395  0.67097  Biso   1.000  O
  O11      1.0000 0.68789  0.46394  0.33763  Biso   1.000  O
  O12      1.0000 0.77605  0.31211  0.00430  Biso   1.000  O
  O13      1.0000 0.16733  0.00000  0.00000  Biso   1.000  O
  O14      1.0000 0.00000  0.16733  0.33333  Biso   1.000  O
  O15      1.0000 0.83267  0.83267  0.66667  Biso   1.000  O
  O16      1.0000 0.83267  0.00000  0.50000  Biso   1.000  O
  O17      1.0000 0.00000  0.83267  0.83333  Biso   1.000  O
  O18      1.0000 0.16733  0.16733  0.16667  Biso   1.000  O
