data_image0
_cell_length_a       6.86916
_cell_length_b       7.46613
_cell_length_c       6.56452
_cell_angle_alpha    90
_cell_angle_beta     92.4612
_cell_angle_gamma    90

_symmetry_space_group_name_H-M    "P 1"
_symmetry_int_tables_number       1

loop_
  _symmetry_equiv_pos_as_xyz
  'x, y, z'

loop_
  _atom_site_label
  _atom_site_occupancy
  _atom_site_fract_x
  _atom_site_fract_y
  _atom_site_fract_z
  _atom_site_thermal_displace_type
  _atom_site_B_iso_or_equiv
  _atom_site_type_symbol
  O1       1.0000 0.32895  0.19044  0.84458  Biso   1.000  O
  O2       1.0000 0.67105  0.69044  0.65542  Biso   1.000  O
  O3       1.0000 0.67105  0.80956  0.15542  Biso   1.000  O
  O4       1.0000 0.32895  0.30956  0.34458  Biso   1.000  O
  O5       1.0000 0.72963  0.11242  0.51749  Biso   1.000  O
  O6       1.0000 0.27037  0.61242  0.98251  Biso   1.000  O
  O7       1.0000 0.27037  0.88758  0.48251  Biso   1.000  O
  O8       1.0000 0.72963  0.38758  0.01749  Biso   1.000  O
  O9       1.0000 0.00577  0.41969  0.70320  Biso   1.000  O
  O10      1.0000 0.99423  0.91969  0.79680  Biso   1.000  O
  O11      1.0000 0.99423  0.58031  0.29680  Biso   1.000  O
  O12      1.0000 0.00577  0.08031  0.20320  Biso   1.000  O
  Ir1      1.0000 0.50000  0.00000  0.00000  Biso   1.000  Ir
  Ir2      1.0000 0.50000  0.50000  0.50000  Biso   1.000  Ir
  Ir3      1.0000 0.00000  0.00000  0.50000  Biso   1.000  Ir
  Ir4      1.0000 0.00000  0.50000  0.00000  Biso   1.000  Ir
