data_image0
_cell_length_a       12.4513
_cell_length_b       12.5197
_cell_length_c       3.90742
_cell_angle_alpha    90
_cell_angle_beta     90
_cell_angle_gamma    90

_symmetry_space_group_name_H-M    "P 1"
_symmetry_int_tables_number       1

loop_
  _symmetry_equiv_pos_as_xyz
  'x, y, z'

loop_
  _atom_site_label
  _atom_site_occupancy
  _atom_site_fract_x
  _atom_site_fract_y
  _atom_site_fract_z
  _atom_site_thermal_displace_type
  _atom_site_B_iso_or_equiv
  _atom_site_type_symbol
  O1       1.0000 0.00000  0.00000  0.09658  Biso   1.000  O
  O2       1.0000 0.50000  0.50000  0.09658  Biso   1.000  O
  O3       1.0000 0.99809  0.15358  0.59716  Biso   1.000  O
  O4       1.0000 0.00191  0.84642  0.59716  Biso   1.000  O
  O5       1.0000 0.49809  0.34642  0.59716  Biso   1.000  O
  O6       1.0000 0.50191  0.65358  0.59716  Biso   1.000  O
  O7       1.0000 0.06122  0.35590  0.59969  Biso   1.000  O
  O8       1.0000 0.93878  0.64411  0.59969  Biso   1.000  O
  O9       1.0000 0.56122  0.14410  0.59969  Biso   1.000  O
  O10      1.0000 0.43878  0.85589  0.59969  Biso   1.000  O
  O11      1.0000 0.07900  0.70827  0.09911  Biso   1.000  O
  O12      1.0000 0.92100  0.29173  0.09911  Biso   1.000  O
  O13      1.0000 0.57900  0.79173  0.09911  Biso   1.000  O
  O14      1.0000 0.42100  0.20827  0.09911  Biso   1.000  O
  O15      1.0000 0.14130  0.56531  0.59971  Biso   1.000  O
  O16      1.0000 0.85870  0.43469  0.59971  Biso   1.000  O
  O17      1.0000 0.64130  0.93469  0.59971  Biso   1.000  O
  O18      1.0000 0.35870  0.06531  0.59971  Biso   1.000  O
  O19      1.0000 0.15016  0.99943  0.59728  Biso   1.000  O
  O20      1.0000 0.84984  0.00057  0.59728  Biso   1.000  O
  O21      1.0000 0.65016  0.50057  0.59728  Biso   1.000  O
  O22      1.0000 0.34984  0.49943  0.59728  Biso   1.000  O
  O23      1.0000 0.20710  0.42167  0.09927  Biso   1.000  O
  O24      1.0000 0.79290  0.57833  0.09927  Biso   1.000  O
  O25      1.0000 0.70710  0.07833  0.09927  Biso   1.000  O
  O26      1.0000 0.29290  0.92167  0.09927  Biso   1.000  O
  O27      1.0000 0.21454  0.78188  0.59958  Biso   1.000  O
  O28      1.0000 0.78546  0.21812  0.59958  Biso   1.000  O
  O29      1.0000 0.71454  0.71812  0.59958  Biso   1.000  O
  O30      1.0000 0.28546  0.28188  0.59958  Biso   1.000  O
  Ir1      1.0000 0.00000  0.00000  0.59667  Biso   1.000  Ir
  Ir2      1.0000 0.50000  0.50000  0.59667  Biso   1.000  Ir
  Ir3      1.0000 0.07784  0.70764  0.59917  Biso   1.000  Ir
  Ir4      1.0000 0.92216  0.29236  0.59917  Biso   1.000  Ir
  Ir5      1.0000 0.57784  0.79236  0.59917  Biso   1.000  Ir
  Ir6      1.0000 0.42216  0.20764  0.59917  Biso   1.000  Ir
  Ir7      1.0000 0.20654  0.42233  0.59966  Biso   1.000  Ir
  Ir8      1.0000 0.79346  0.57767  0.59966  Biso   1.000  Ir
  Ir9      1.0000 0.70654  0.07767  0.59966  Biso   1.000  Ir
  Ir10     1.0000 0.29346  0.92233  0.59966  Biso   1.000  Ir
