data_image0
_cell_length_a       7.47326
_cell_length_b       12.7448
_cell_length_c       5.00544
_cell_angle_alpha    90
_cell_angle_beta     108.641
_cell_angle_gamma    90

_symmetry_space_group_name_H-M    "P 1"
_symmetry_int_tables_number       1

loop_
  _symmetry_equiv_pos_as_xyz
  'x, y, z'

loop_
  _atom_site_label
  _atom_site_occupancy
  _atom_site_fract_x
  _atom_site_fract_y
  _atom_site_fract_z
  _atom_site_thermal_displace_type
  _atom_site_B_iso_or_equiv
  _atom_site_type_symbol
  Ir1      1.0000 0.50000  0.66704  0.00000  Biso   1.000  Ir
  Ir2      1.0000 0.50000  0.38146  0.00000  Biso   1.000  Ir
  Ir3      1.0000 0.00000  0.16704  0.00000  Biso   1.000  Ir
  Ir4      1.0000 0.00000  0.88146  0.00000  Biso   1.000  Ir
  O1       1.0000 0.68324  0.29468  0.80779  Biso   1.000  O
  O2       1.0000 0.31676  0.29468  0.19221  Biso   1.000  O
  O3       1.0000 0.73288  0.01768  0.76515  Biso   1.000  O
  O4       1.0000 0.26712  0.01768  0.23485  Biso   1.000  O
  O5       1.0000 0.62185  0.67143  0.64506  Biso   1.000  O
  O6       1.0000 0.37815  0.67143  0.35494  Biso   1.000  O
  O7       1.0000 0.18324  0.79468  0.80779  Biso   1.000  O
  O8       1.0000 0.81676  0.79468  0.19221  Biso   1.000  O
  O9       1.0000 0.23288  0.51768  0.76515  Biso   1.000  O
  O10      1.0000 0.76712  0.51768  0.23485  Biso   1.000  O
  O11      1.0000 0.12185  0.17143  0.64506  Biso   1.000  O
  O12      1.0000 0.87815  0.17143  0.35494  Biso   1.000  O
