data_image0
_cell_length_a       6.68744
_cell_length_b       6.68745
_cell_length_c       13.1634
_cell_angle_alpha    90
_cell_angle_beta     90
_cell_angle_gamma    120

_symmetry_space_group_name_H-M    "P 1"
_symmetry_int_tables_number       1

loop_
  _symmetry_equiv_pos_as_xyz
  'x, y, z'

loop_
  _atom_site_label
  _atom_site_occupancy
  _atom_site_fract_x
  _atom_site_fract_y
  _atom_site_fract_z
  _atom_site_thermal_displace_type
  _atom_site_B_iso_or_equiv
  _atom_site_type_symbol
  O1       1.0000 0.80647  0.13951  0.41960  Biso   1.000  O
  O2       1.0000 0.86049  0.66696  0.41960  Biso   1.000  O
  O3       1.0000 0.33304  0.19353  0.41960  Biso   1.000  O
  O4       1.0000 0.66637  0.80618  0.58626  Biso   1.000  O
  O5       1.0000 0.13980  0.33363  0.58626  Biso   1.000  O
  O6       1.0000 0.19382  0.86020  0.58626  Biso   1.000  O
  O7       1.0000 0.47313  0.47284  0.75293  Biso   1.000  O
  O8       1.0000 0.52716  0.00029  0.75293  Biso   1.000  O
  O9       1.0000 0.99971  0.52687  0.75293  Biso   1.000  O
  O10      1.0000 0.33304  0.13951  0.91960  Biso   1.000  O
  O11      1.0000 0.80647  0.66696  0.91960  Biso   1.000  O
  O12      1.0000 0.86049  0.19353  0.91960  Biso   1.000  O
  O13      1.0000 0.13980  0.80618  0.08626  Biso   1.000  O
  O14      1.0000 0.19382  0.33363  0.08626  Biso   1.000  O
  O15      1.0000 0.66638  0.86020  0.08626  Biso   1.000  O
  O16      1.0000 0.99971  0.47284  0.25293  Biso   1.000  O
  O17      1.0000 0.47313  0.00029  0.25293  Biso   1.000  O
  O18      1.0000 0.52716  0.52687  0.25293  Biso   1.000  O
  Ir1      1.0000 0.00000  0.00000  0.00294  Biso   1.000  Ir
  Ir2      1.0000 0.00000  0.00000  0.50294  Biso   1.000  Ir
  Ir3      1.0000 0.66667  0.33333  0.33627  Biso   1.000  Ir
  Ir4      1.0000 0.66667  0.33333  0.83627  Biso   1.000  Ir
  Ir5      1.0000 0.33333  0.66667  0.66961  Biso   1.000  Ir
  Ir6      1.0000 0.33333  0.66667  0.16960  Biso   1.000  Ir
