data_image0
_cell_length_a       5.67938
_cell_length_b       8.61186
_cell_length_c       4.13609
_cell_angle_alpha    90
_cell_angle_beta     107.354
_cell_angle_gamma    90

_symmetry_space_group_name_H-M    "P 1"
_symmetry_int_tables_number       1

loop_
  _symmetry_equiv_pos_as_xyz
  'x, y, z'

loop_
  _atom_site_label
  _atom_site_occupancy
  _atom_site_fract_x
  _atom_site_fract_y
  _atom_site_fract_z
  _atom_site_thermal_displace_type
  _atom_site_B_iso_or_equiv
  _atom_site_type_symbol
  O1       1.0000 0.77796  0.93799  0.47471  Biso   1.000  O
  O2       1.0000 0.22204  0.93799  0.02529  Biso   1.000  O
  O3       1.0000 0.22204  0.06201  0.52529  Biso   1.000  O
  O4       1.0000 0.77796  0.06201  0.97471  Biso   1.000  O
  O5       1.0000 0.25000  0.25000  0.00000  Biso   1.000  O
  O6       1.0000 0.25000  0.75000  0.50000  Biso   1.000  O
  O7       1.0000 0.27796  0.43799  0.47471  Biso   1.000  O
  O8       1.0000 0.72204  0.43799  0.02529  Biso   1.000  O
  O9       1.0000 0.72204  0.56201  0.52529  Biso   1.000  O
  O10      1.0000 0.27796  0.56201  0.97471  Biso   1.000  O
  O11      1.0000 0.75000  0.75000  0.00000  Biso   1.000  O
  O12      1.0000 0.75000  0.25000  0.50000  Biso   1.000  O
  Ir1      1.0000 0.50000  0.39840  0.25000  Biso   1.000  Ir
  Ir2      1.0000 0.50000  0.60160  0.75000  Biso   1.000  Ir
  Ir3      1.0000 0.00000  0.89840  0.25000  Biso   1.000  Ir
  Ir4      1.0000 0.00000  0.10160  0.75000  Biso   1.000  Ir
