data_image0
_cell_length_a       6.9178
_cell_length_b       5.20853
_cell_length_c       7.44257
_cell_angle_alpha    90
_cell_angle_beta     90
_cell_angle_gamma    90

_symmetry_space_group_name_H-M    "P 1"
_symmetry_int_tables_number       1

loop_
  _symmetry_equiv_pos_as_xyz
  'x, y, z'

loop_
  _atom_site_label
  _atom_site_occupancy
  _atom_site_fract_x
  _atom_site_fract_y
  _atom_site_fract_z
  _atom_site_thermal_displace_type
  _atom_site_B_iso_or_equiv
  _atom_site_type_symbol
  Ir1      1.0000 0.80049  0.54362  0.73450  Biso   1.000  Ir
  Ir2      1.0000 0.19951  0.45638  0.23450  Biso   1.000  Ir
  Ir3      1.0000 0.30049  0.95638  0.73450  Biso   1.000  Ir
  Ir4      1.0000 0.69951  0.04362  0.23450  Biso   1.000  Ir
  O1       1.0000 0.45661  0.60208  0.18133  Biso   1.000  O
  O2       1.0000 0.54339  0.39792  0.68133  Biso   1.000  O
  O3       1.0000 0.95661  0.89792  0.18133  Biso   1.000  O
  O4       1.0000 0.04339  0.10208  0.68133  Biso   1.000  O
  O5       1.0000 0.18443  0.63451  0.46943  Biso   1.000  O
  O6       1.0000 0.81557  0.36549  0.96943  Biso   1.000  O
  O7       1.0000 0.68443  0.86549  0.46943  Biso   1.000  O
  O8       1.0000 0.31557  0.13451  0.96943  Biso   1.000  O
  O9       1.0000 0.17751  0.66099  0.85995  Biso   1.000  O
  O10      1.0000 0.82249  0.33901  0.35995  Biso   1.000  O
  O11      1.0000 0.67751  0.83901  0.85995  Biso   1.000  O
  O12      1.0000 0.32249  0.16099  0.35995  Biso   1.000  O
