data_image0
_cell_length_a       6.07688
_cell_length_b       8.46962
_cell_length_c       8.74448
_cell_angle_alpha    90
_cell_angle_beta     109.582
_cell_angle_gamma    90

_symmetry_space_group_name_H-M    "P 1"
_symmetry_int_tables_number       1

loop_
  _symmetry_equiv_pos_as_xyz
  'x, y, z'

loop_
  _atom_site_label
  _atom_site_occupancy
  _atom_site_fract_x
  _atom_site_fract_y
  _atom_site_fract_z
  _atom_site_thermal_displace_type
  _atom_site_B_iso_or_equiv
  _atom_site_type_symbol
  Ir1      1.0000 0.00000  0.99572  0.50000  Biso   1.000  Ir
  Ir2      1.0000 0.00000  0.34779  0.50000  Biso   1.000  Ir
  Ir3      1.0000 0.00000  0.31751  0.00000  Biso   1.000  Ir
  Ir4      1.0000 0.00000  0.66969  0.00000  Biso   1.000  Ir
  Ir5      1.0000 0.50000  0.49572  0.50000  Biso   1.000  Ir
  Ir6      1.0000 0.50000  0.84779  0.50000  Biso   1.000  Ir
  Ir7      1.0000 0.50000  0.81751  0.00000  Biso   1.000  Ir
  Ir8      1.0000 0.50000  0.16969  0.00000  Biso   1.000  Ir
  O1       1.0000 0.76910  0.35613  0.61015  Biso   1.000  O
  O2       1.0000 0.23090  0.35613  0.38985  Biso   1.000  O
  O3       1.0000 0.27096  0.48445  0.61333  Biso   1.000  O
  O4       1.0000 0.72904  0.48445  0.38667  Biso   1.000  O
  O5       1.0000 0.15417  0.17101  0.63048  Biso   1.000  O
  O6       1.0000 0.84583  0.17101  0.36952  Biso   1.000  O
  O7       1.0000 0.84324  0.49470  0.86981  Biso   1.000  O
  O8       1.0000 0.15676  0.49470  0.13019  Biso   1.000  O
  O9       1.0000 0.22918  0.68048  0.88677  Biso   1.000  O
  O10      1.0000 0.77082  0.68048  0.11323  Biso   1.000  O
  O11      1.0000 0.23238  0.31097  0.89084  Biso   1.000  O
  O12      1.0000 0.76762  0.31097  0.10916  Biso   1.000  O
  O13      1.0000 0.26910  0.85613  0.61015  Biso   1.000  O
  O14      1.0000 0.73090  0.85613  0.38985  Biso   1.000  O
  O15      1.0000 0.77096  0.98445  0.61333  Biso   1.000  O
  O16      1.0000 0.22904  0.98445  0.38667  Biso   1.000  O
  O17      1.0000 0.65417  0.67101  0.63048  Biso   1.000  O
  O18      1.0000 0.34583  0.67101  0.36952  Biso   1.000  O
  O19      1.0000 0.34324  0.99470  0.86981  Biso   1.000  O
  O20      1.0000 0.65676  0.99470  0.13019  Biso   1.000  O
  O21      1.0000 0.72918  0.18048  0.88677  Biso   1.000  O
  O22      1.0000 0.27082  0.18048  0.11323  Biso   1.000  O
  O23      1.0000 0.73238  0.81097  0.89084  Biso   1.000  O
  O24      1.0000 0.26762  0.81097  0.10916  Biso   1.000  O
