data_image0
_cell_length_a       7.51981
_cell_length_b       14.58
_cell_length_c       15.0452
_cell_angle_alpha    90
_cell_angle_beta     90.1036
_cell_angle_gamma    90

_symmetry_space_group_name_H-M    "P 1"
_symmetry_int_tables_number       1

loop_
  _symmetry_equiv_pos_as_xyz
  'x, y, z'

loop_
  _atom_site_label
  _atom_site_occupancy
  _atom_site_fract_x
  _atom_site_fract_y
  _atom_site_fract_z
  _atom_site_thermal_displace_type
  _atom_site_B_iso_or_equiv
  _atom_site_type_symbol
  O1       1.0000 0.50000  0.00000  0.00000  Biso   1.000  O
  O2       1.0000 0.50000  0.50000  0.00000  Biso   1.000  O
  O3       1.0000 0.74111  0.25000  0.02385  Biso   1.000  O
  O4       1.0000 0.25889  0.75000  0.97615  Biso   1.000  O
  O5       1.0000 0.24122  0.25000  0.02447  Biso   1.000  O
  O6       1.0000 0.75878  0.75000  0.97553  Biso   1.000  O
  O7       1.0000 0.49255  0.25000  0.52283  Biso   1.000  O
  O8       1.0000 0.50745  0.75000  0.47717  Biso   1.000  O
  O9       1.0000 0.99223  0.25000  0.52264  Biso   1.000  O
  O10      1.0000 0.00777  0.75000  0.47736  Biso   1.000  O
  O11      1.0000 0.00000  0.00000  0.00000  Biso   1.000  O
  O12      1.0000 0.00000  0.50000  0.00000  Biso   1.000  O
  Ir1      1.0000 0.97241  0.25000  0.06004  Biso   1.000  Ir
  Ir2      1.0000 0.02759  0.75000  0.93996  Biso   1.000  Ir
  Ir3      1.0000 0.47243  0.25000  0.06110  Biso   1.000  Ir
  Ir4      1.0000 0.52757  0.75000  0.93890  Biso   1.000  Ir
