data_image0
_cell_length_a       10.3582
_cell_length_b       10.3582
_cell_length_c       5.24516
_cell_angle_alpha    90
_cell_angle_beta     90
_cell_angle_gamma    90

_symmetry_space_group_name_H-M    "P 1"
_symmetry_int_tables_number       1

loop_
  _symmetry_equiv_pos_as_xyz
  'x, y, z'

loop_
  _atom_site_label
  _atom_site_occupancy
  _atom_site_fract_x
  _atom_site_fract_y
  _atom_site_fract_z
  _atom_site_thermal_displace_type
  _atom_site_B_iso_or_equiv
  _atom_site_type_symbol
  Ir1      1.0000 0.20635  0.97923  0.76970  Biso   1.000  Ir
  Ir2      1.0000 0.79365  0.02077  0.76970  Biso   1.000  Ir
  Ir3      1.0000 0.52077  0.70635  0.26970  Biso   1.000  Ir
  Ir4      1.0000 0.47923  0.29365  0.26970  Biso   1.000  Ir
  Ir5      1.0000 0.29365  0.52077  0.73030  Biso   1.000  Ir
  Ir6      1.0000 0.70635  0.47923  0.73030  Biso   1.000  Ir
  Ir7      1.0000 0.97923  0.79365  0.23030  Biso   1.000  Ir
  Ir8      1.0000 0.02077  0.20635  0.23030  Biso   1.000  Ir
  O1       1.0000 0.48881  0.35064  0.76804  Biso   1.000  O
  O2       1.0000 0.51119  0.64936  0.76804  Biso   1.000  O
  O3       1.0000 0.14936  0.98881  0.26804  Biso   1.000  O
  O4       1.0000 0.85064  0.01119  0.26804  Biso   1.000  O
  O5       1.0000 0.01119  0.14936  0.73196  Biso   1.000  O
  O6       1.0000 0.98881  0.85064  0.73196  Biso   1.000  O
  O7       1.0000 0.35064  0.51119  0.23196  Biso   1.000  O
  O8       1.0000 0.64936  0.48881  0.23196  Biso   1.000  O
  O9       1.0000 0.09405  0.41538  0.97774  Biso   1.000  O
  O10      1.0000 0.90595  0.58462  0.97774  Biso   1.000  O
  O11      1.0000 0.08462  0.59405  0.47774  Biso   1.000  O
  O12      1.0000 0.91538  0.40595  0.47774  Biso   1.000  O
  O13      1.0000 0.40595  0.08462  0.52226  Biso   1.000  O
  O14      1.0000 0.59405  0.91538  0.52226  Biso   1.000  O
  O15      1.0000 0.41538  0.90595  0.02226  Biso   1.000  O
  O16      1.0000 0.58462  0.09405  0.02226  Biso   1.000  O
  O17      1.0000 0.80571  0.28649  0.99113  Biso   1.000  O
  O18      1.0000 0.19429  0.71350  0.99113  Biso   1.000  O
  O19      1.0000 0.21351  0.30571  0.49113  Biso   1.000  O
  O20      1.0000 0.78649  0.69429  0.49113  Biso   1.000  O
  O21      1.0000 0.69429  0.21351  0.50887  Biso   1.000  O
  O22      1.0000 0.30571  0.78649  0.50887  Biso   1.000  O
  O23      1.0000 0.28649  0.19429  0.00887  Biso   1.000  O
  O24      1.0000 0.71350  0.80571  0.00887  Biso   1.000  O
