data_image0
_cell_length_a       11.7511
_cell_length_b       7.43538
_cell_length_c       8.24163
_cell_angle_alpha    90
_cell_angle_beta     97.0459
_cell_angle_gamma    90

_symmetry_space_group_name_H-M    "P 1"
_symmetry_int_tables_number       1

loop_
  _symmetry_equiv_pos_as_xyz
  'x, y, z'

loop_
  _atom_site_label
  _atom_site_occupancy
  _atom_site_fract_x
  _atom_site_fract_y
  _atom_site_fract_z
  _atom_site_thermal_displace_type
  _atom_site_B_iso_or_equiv
  _atom_site_type_symbol
  O1       1.0000 0.40167  0.76241  0.97591  Biso   1.000  O
  O2       1.0000 0.59833  0.76241  0.02409  Biso   1.000  O
  O3       1.0000 0.59833  0.23759  0.02409  Biso   1.000  O
  O4       1.0000 0.40167  0.23759  0.97591  Biso   1.000  O
  O5       1.0000 0.32599  0.00000  0.83709  Biso   1.000  O
  O6       1.0000 0.67401  0.00000  0.16291  Biso   1.000  O
  O7       1.0000 0.41781  0.00000  0.63268  Biso   1.000  O
  O8       1.0000 0.58219  0.00000  0.36732  Biso   1.000  O
  O9       1.0000 0.34936  0.74564  0.51220  Biso   1.000  O
  O10      1.0000 0.65064  0.74564  0.48780  Biso   1.000  O
  O11      1.0000 0.65064  0.25436  0.48780  Biso   1.000  O
  O12      1.0000 0.34936  0.25436  0.51220  Biso   1.000  O
  O13      1.0000 0.90167  0.26241  0.97591  Biso   1.000  O
  O14      1.0000 0.09833  0.26241  0.02409  Biso   1.000  O
  O15      1.0000 0.09833  0.73759  0.02409  Biso   1.000  O
  O16      1.0000 0.90167  0.73759  0.97591  Biso   1.000  O
  O17      1.0000 0.82599  0.50000  0.83709  Biso   1.000  O
  O18      1.0000 0.17401  0.50000  0.16291  Biso   1.000  O
  O19      1.0000 0.91781  0.50000  0.63268  Biso   1.000  O
  O20      1.0000 0.08219  0.50000  0.36732  Biso   1.000  O
  O21      1.0000 0.84936  0.24564  0.51220  Biso   1.000  O
  O22      1.0000 0.15064  0.24564  0.48780  Biso   1.000  O
  O23      1.0000 0.15064  0.75436  0.48780  Biso   1.000  O
  O24      1.0000 0.84936  0.75436  0.51220  Biso   1.000  O
  Ir1      1.0000 0.70700  0.00000  0.77558  Biso   1.000  Ir
  Ir2      1.0000 0.29300  0.00000  0.22442  Biso   1.000  Ir
  Ir3      1.0000 0.04195  0.00000  0.74144  Biso   1.000  Ir
  Ir4      1.0000 0.95805  0.00000  0.25856  Biso   1.000  Ir
  Ir5      1.0000 0.20700  0.50000  0.77558  Biso   1.000  Ir
  Ir6      1.0000 0.79300  0.50000  0.22442  Biso   1.000  Ir
  Ir7      1.0000 0.54195  0.50000  0.74144  Biso   1.000  Ir
  Ir8      1.0000 0.45805  0.50000  0.25856  Biso   1.000  Ir
