data_image0
_cell_length_a       7.57752
_cell_length_b       7.57752
_cell_length_c       35.8567
_cell_angle_alpha    90
_cell_angle_beta     90
_cell_angle_gamma    120

_symmetry_space_group_name_H-M    "P 1"
_symmetry_int_tables_number       1

loop_
  _symmetry_equiv_pos_as_xyz
  'x, y, z'

loop_
  _atom_site_label
  _atom_site_occupancy
  _atom_site_fract_x
  _atom_site_fract_y
  _atom_site_fract_z
  _atom_site_thermal_displace_type
  _atom_site_B_iso_or_equiv
  _atom_site_type_symbol
  O1       1.0000 0.16667  0.33333  0.33333  Biso   1.000  O
  O2       1.0000 0.66667  0.83333  0.33333  Biso   1.000  O
  O3       1.0000 0.16667  0.83333  0.33333  Biso   1.000  O
  O4       1.0000 0.84887  0.15113  0.26707  Biso   1.000  O
  O5       1.0000 0.84887  0.69774  0.26707  Biso   1.000  O
  O6       1.0000 0.30226  0.15113  0.26707  Biso   1.000  O
  O7       1.0000 0.81780  0.18220  0.06626  Biso   1.000  O
  O8       1.0000 0.36441  0.18220  0.06626  Biso   1.000  O
  O9       1.0000 0.81780  0.63559  0.06626  Biso   1.000  O
  O10      1.0000 0.16511  0.83489  0.19964  Biso   1.000  O
  O11      1.0000 0.16511  0.33022  0.19964  Biso   1.000  O
  O12      1.0000 0.66978  0.83489  0.19964  Biso   1.000  O
  O13      1.0000 0.50156  0.49844  0.13370  Biso   1.000  O
  O14      1.0000 0.99689  0.49844  0.13370  Biso   1.000  O
  O15      1.0000 0.50156  0.00311  0.13370  Biso   1.000  O
  O16      1.0000 0.83333  0.66667  0.66667  Biso   1.000  O
  O17      1.0000 0.33333  0.16667  0.66667  Biso   1.000  O
  O18      1.0000 0.83333  0.16667  0.66667  Biso   1.000  O
  O19      1.0000 0.51554  0.48446  0.60041  Biso   1.000  O
  O20      1.0000 0.51554  0.03107  0.60041  Biso   1.000  O
  O21      1.0000 0.96893  0.48446  0.60041  Biso   1.000  O
  O22      1.0000 0.48446  0.51554  0.39959  Biso   1.000  O
  O23      1.0000 0.03107  0.51554  0.39959  Biso   1.000  O
  O24      1.0000 0.48446  0.96893  0.39959  Biso   1.000  O
  O25      1.0000 0.83178  0.16822  0.53297  Biso   1.000  O
  O26      1.0000 0.83178  0.66355  0.53297  Biso   1.000  O
  O27      1.0000 0.33645  0.16822  0.53297  Biso   1.000  O
  O28      1.0000 0.16822  0.83178  0.46703  Biso   1.000  O
  O29      1.0000 0.66355  0.83178  0.46703  Biso   1.000  O
  O30      1.0000 0.16822  0.33645  0.46703  Biso   1.000  O
  O31      1.0000 0.50000  0.00000  0.00000  Biso   1.000  O
  O32      1.0000 0.00000  0.50000  0.00000  Biso   1.000  O
  O33      1.0000 0.50000  0.50000  0.00000  Biso   1.000  O
  O34      1.0000 0.18220  0.81780  0.93374  Biso   1.000  O
  O35      1.0000 0.18220  0.36441  0.93374  Biso   1.000  O
  O36      1.0000 0.63559  0.81780  0.93374  Biso   1.000  O
  O37      1.0000 0.15113  0.84887  0.73293  Biso   1.000  O
  O38      1.0000 0.69774  0.84887  0.73293  Biso   1.000  O
  O39      1.0000 0.15113  0.30226  0.73293  Biso   1.000  O
  O40      1.0000 0.49844  0.50156  0.86630  Biso   1.000  O
  O41      1.0000 0.49844  0.99689  0.86630  Biso   1.000  O
  O42      1.0000 0.00311  0.50156  0.86630  Biso   1.000  O
  O43      1.0000 0.83489  0.16511  0.80036  Biso   1.000  O
  O44      1.0000 0.33022  0.16511  0.80036  Biso   1.000  O
  O45      1.0000 0.83489  0.66978  0.80036  Biso   1.000  O
  Ir1      1.0000 0.66667  0.33333  0.33333  Biso   1.000  Ir
  Ir2      1.0000 0.33333  0.66667  0.26664  Biso   1.000  Ir
  Ir3      1.0000 0.33333  0.66667  0.06670  Biso   1.000  Ir
  Ir4      1.0000 0.66667  0.33333  0.20200  Biso   1.000  Ir
  Ir5      1.0000 0.00000  0.00000  0.13133  Biso   1.000  Ir
  Ir6      1.0000 0.33333  0.66667  0.66667  Biso   1.000  Ir
  Ir7      1.0000 0.00000  0.00000  0.59997  Biso   1.000  Ir
  Ir8      1.0000 0.00000  0.00000  0.40003  Biso   1.000  Ir
  Ir9      1.0000 0.33333  0.66667  0.53533  Biso   1.000  Ir
  Ir10     1.0000 0.66667  0.33333  0.46467  Biso   1.000  Ir
  Ir11     1.0000 1.00000  1.00000  0.00000  Biso   1.000  Ir
  Ir12     1.0000 0.66667  0.33333  0.93330  Biso   1.000  Ir
  Ir13     1.0000 0.66667  0.33333  0.73337  Biso   1.000  Ir
  Ir14     1.0000 0.00000  0.00000  0.86867  Biso   1.000  Ir
  Ir15     1.0000 0.33333  0.66667  0.79800  Biso   1.000  Ir
