data_image0
_cell_length_a       14.4607
_cell_length_b       13.0236
_cell_length_c       8.37299
_cell_angle_alpha    90
_cell_angle_beta     90
_cell_angle_gamma    90

_symmetry_space_group_name_H-M    "P 1"
_symmetry_int_tables_number       1

loop_
  _symmetry_equiv_pos_as_xyz
  'x, y, z'

loop_
  _atom_site_label
  _atom_site_occupancy
  _atom_site_fract_x
  _atom_site_fract_y
  _atom_site_fract_z
  _atom_site_thermal_displace_type
  _atom_site_B_iso_or_equiv
  _atom_site_type_symbol
  O1       1.0000 0.23920  0.90496  0.39377  Biso   1.000  O
  O2       1.0000 0.26080  0.09504  0.89377  Biso   1.000  O
  O3       1.0000 0.76080  0.40496  0.60623  Biso   1.000  O
  O4       1.0000 0.73920  0.59503  0.10623  Biso   1.000  O
  O5       1.0000 0.76080  0.09504  0.60623  Biso   1.000  O
  O6       1.0000 0.73920  0.90496  0.10623  Biso   1.000  O
  O7       1.0000 0.23920  0.59503  0.39377  Biso   1.000  O
  O8       1.0000 0.26080  0.40496  0.89377  Biso   1.000  O
  O9       1.0000 0.25615  0.25000  0.38779  Biso   1.000  O
  O10      1.0000 0.24385  0.75000  0.88779  Biso   1.000  O
  O11      1.0000 0.74385  0.75000  0.61221  Biso   1.000  O
  O12      1.0000 0.75615  0.25000  0.11221  Biso   1.000  O
  O13      1.0000 0.49543  0.25000  0.78698  Biso   1.000  O
  O14      1.0000 0.00457  0.75000  0.28698  Biso   1.000  O
  O15      1.0000 0.50457  0.75000  0.21302  Biso   1.000  O
  O16      1.0000 0.99543  0.25000  0.71302  Biso   1.000  O
  O17      1.0000 0.48814  0.40569  0.27185  Biso   1.000  O
  O18      1.0000 0.01186  0.59431  0.77185  Biso   1.000  O
  O19      1.0000 0.51186  0.90569  0.72815  Biso   1.000  O
  O20      1.0000 0.98814  0.09431  0.22815  Biso   1.000  O
  O21      1.0000 0.51186  0.59431  0.72815  Biso   1.000  O
  O22      1.0000 0.98814  0.40569  0.22815  Biso   1.000  O
  O23      1.0000 0.48814  0.09431  0.27185  Biso   1.000  O
  O24      1.0000 0.01186  0.90569  0.77185  Biso   1.000  O
  Ir1      1.0000 0.35313  0.25000  0.94898  Biso   1.000  Ir
  Ir2      1.0000 0.14687  0.75000  0.44898  Biso   1.000  Ir
  Ir3      1.0000 0.64687  0.75000  0.05102  Biso   1.000  Ir
  Ir4      1.0000 0.85313  0.25000  0.55102  Biso   1.000  Ir
  Ir5      1.0000 0.89613  0.25000  0.27867  Biso   1.000  Ir
  Ir6      1.0000 0.60387  0.75000  0.77867  Biso   1.000  Ir
  Ir7      1.0000 0.10387  0.75000  0.72133  Biso   1.000  Ir
  Ir8      1.0000 0.39613  0.25000  0.22133  Biso   1.000  Ir
