data_image0
_cell_length_a       8.56475
_cell_length_b       10.0705
_cell_length_c       5.06923
_cell_angle_alpha    90
_cell_angle_beta     90
_cell_angle_gamma    90

_symmetry_space_group_name_H-M    "P 1"
_symmetry_int_tables_number       1

loop_
  _symmetry_equiv_pos_as_xyz
  'x, y, z'

loop_
  _atom_site_label
  _atom_site_occupancy
  _atom_site_fract_x
  _atom_site_fract_y
  _atom_site_fract_z
  _atom_site_thermal_displace_type
  _atom_site_B_iso_or_equiv
  _atom_site_type_symbol
  Ir1      1.0000 0.00000  0.50000  0.98991  Biso   1.000  Ir
  Ir2      1.0000 0.50000  0.00000  0.01009  Biso   1.000  Ir
  Ir3      1.0000 0.00000  0.00000  0.02431  Biso   1.000  Ir
  Ir4      1.0000 0.50000  0.50000  0.97568  Biso   1.000  Ir
  O1       1.0000 0.24961  0.25056  0.01558  Biso   1.000  O
  O2       1.0000 0.75039  0.74944  0.01558  Biso   1.000  O
  O3       1.0000 0.25039  0.75056  0.98442  Biso   1.000  O
  O4       1.0000 0.74961  0.24944  0.98442  Biso   1.000  O
  O5       1.0000 0.18838  0.29023  0.40905  Biso   1.000  O
  O6       1.0000 0.81162  0.70977  0.40905  Biso   1.000  O
  O7       1.0000 0.31162  0.79023  0.59095  Biso   1.000  O
  O8       1.0000 0.68838  0.20977  0.59095  Biso   1.000  O
  O9       1.0000 0.24517  0.49096  0.47102  Biso   1.000  O
  O10      1.0000 0.75483  0.50904  0.47102  Biso   1.000  O
  O11      1.0000 0.25483  0.99096  0.52898  Biso   1.000  O
  O12      1.0000 0.74517  0.00904  0.52898  Biso   1.000  O
