data_image0
_cell_length_a       9.61973
_cell_length_b       9.61973
_cell_length_c       9.61973
_cell_angle_alpha    90
_cell_angle_beta     90
_cell_angle_gamma    90

_symmetry_space_group_name_H-M    "P 1"
_symmetry_int_tables_number       1

loop_
  _symmetry_equiv_pos_as_xyz
  'x, y, z'

loop_
  _atom_site_label
  _atom_site_occupancy
  _atom_site_fract_x
  _atom_site_fract_y
  _atom_site_fract_z
  _atom_site_thermal_displace_type
  _atom_site_B_iso_or_equiv
  _atom_site_type_symbol
  Ir1      1.0000 0.03026  0.53026  0.96974  Biso   1.000  Ir
  Ir2      1.0000 0.46974  0.46974  0.46974  Biso   1.000  Ir
  Ir3      1.0000 0.53026  0.96974  0.03026  Biso   1.000  Ir
  Ir4      1.0000 0.96974  0.03026  0.53026  Biso   1.000  Ir
  Ir5      1.0000 0.78026  0.28026  0.21974  Biso   1.000  Ir
  Ir6      1.0000 0.21974  0.21974  0.21974  Biso   1.000  Ir
  Ir7      1.0000 0.21974  0.78026  0.28026  Biso   1.000  Ir
  Ir8      1.0000 0.28026  0.21974  0.78026  Biso   1.000  Ir
  Ir9      1.0000 0.53026  0.03026  0.46974  Biso   1.000  Ir
  Ir10     1.0000 0.96974  0.96974  0.96974  Biso   1.000  Ir
  Ir11     1.0000 0.03026  0.46974  0.53026  Biso   1.000  Ir
  Ir12     1.0000 0.46974  0.53026  0.03026  Biso   1.000  Ir
  Ir13     1.0000 0.28026  0.78026  0.71974  Biso   1.000  Ir
  Ir14     1.0000 0.71974  0.71974  0.71974  Biso   1.000  Ir
  Ir15     1.0000 0.71974  0.28026  0.78026  Biso   1.000  Ir
  Ir16     1.0000 0.78026  0.71974  0.28026  Biso   1.000  Ir
  O1       1.0000 0.56188  0.86900  0.27865  Biso   1.000  O
  O2       1.0000 0.93812  0.13100  0.77865  Biso   1.000  O
  O3       1.0000 0.56188  0.13100  0.22135  Biso   1.000  O
  O4       1.0000 0.43812  0.36900  0.22135  Biso   1.000  O
  O5       1.0000 0.36900  0.22135  0.43812  Biso   1.000  O
  O6       1.0000 0.13100  0.22135  0.56188  Biso   1.000  O
  O7       1.0000 0.13100  0.77865  0.93812  Biso   1.000  O
  O8       1.0000 0.86900  0.27865  0.56188  Biso   1.000  O
  O9       1.0000 0.22135  0.56188  0.13100  Biso   1.000  O
  O10      1.0000 0.22135  0.43812  0.36900  Biso   1.000  O
  O11      1.0000 0.27865  0.56188  0.86900  Biso   1.000  O
  O12      1.0000 0.77865  0.93812  0.13100  Biso   1.000  O
  O13      1.0000 0.61900  0.31188  0.02865  Biso   1.000  O
  O14      1.0000 0.38100  0.18812  0.02865  Biso   1.000  O
  O15      1.0000 0.38100  0.81188  0.47135  Biso   1.000  O
  O16      1.0000 0.11900  0.18812  0.97135  Biso   1.000  O
  O17      1.0000 0.97135  0.11900  0.18812  Biso   1.000  O
  O18      1.0000 0.47135  0.38100  0.81188  Biso   1.000  O
  O19      1.0000 0.02865  0.38100  0.18812  Biso   1.000  O
  O20      1.0000 0.02865  0.61900  0.31188  Biso   1.000  O
  O21      1.0000 0.81188  0.47135  0.38100  Biso   1.000  O
  O22      1.0000 0.18812  0.97135  0.11900  Biso   1.000  O
  O23      1.0000 0.31188  0.02865  0.61900  Biso   1.000  O
  O24      1.0000 0.18812  0.02865  0.38100  Biso   1.000  O
  O25      1.0000 0.06188  0.36900  0.77865  Biso   1.000  O
  O26      1.0000 0.43812  0.63100  0.27865  Biso   1.000  O
  O27      1.0000 0.06188  0.63100  0.72135  Biso   1.000  O
  O28      1.0000 0.93812  0.86900  0.72135  Biso   1.000  O
  O29      1.0000 0.86900  0.72135  0.93812  Biso   1.000  O
  O30      1.0000 0.63100  0.72135  0.06188  Biso   1.000  O
  O31      1.0000 0.63100  0.27865  0.43812  Biso   1.000  O
  O32      1.0000 0.36900  0.77865  0.06188  Biso   1.000  O
  O33      1.0000 0.72135  0.06188  0.63100  Biso   1.000  O
  O34      1.0000 0.72135  0.93812  0.86900  Biso   1.000  O
  O35      1.0000 0.77865  0.06188  0.36900  Biso   1.000  O
  O36      1.0000 0.27865  0.43812  0.63100  Biso   1.000  O
  O37      1.0000 0.11900  0.81188  0.52865  Biso   1.000  O
  O38      1.0000 0.88100  0.68812  0.52865  Biso   1.000  O
  O39      1.0000 0.88100  0.31188  0.97135  Biso   1.000  O
  O40      1.0000 0.61900  0.68812  0.47135  Biso   1.000  O
  O41      1.0000 0.47135  0.61900  0.68812  Biso   1.000  O
  O42      1.0000 0.97135  0.88100  0.31188  Biso   1.000  O
  O43      1.0000 0.52865  0.88100  0.68812  Biso   1.000  O
  O44      1.0000 0.52865  0.11900  0.81188  Biso   1.000  O
  O45      1.0000 0.31188  0.97135  0.88100  Biso   1.000  O
  O46      1.0000 0.68812  0.47135  0.61900  Biso   1.000  O
  O47      1.0000 0.81188  0.52865  0.11900  Biso   1.000  O
  O48      1.0000 0.68812  0.52865  0.88100  Biso   1.000  O
