data_image0
_cell_length_a       6.65346
_cell_length_b       7.75934
_cell_length_c       6.85133
_cell_angle_alpha    90
_cell_angle_beta     114.939
_cell_angle_gamma    90

_symmetry_space_group_name_H-M    "P 1"
_symmetry_int_tables_number       1

loop_
  _symmetry_equiv_pos_as_xyz
  'x, y, z'

loop_
  _atom_site_label
  _atom_site_occupancy
  _atom_site_fract_x
  _atom_site_fract_y
  _atom_site_fract_z
  _atom_site_thermal_displace_type
  _atom_site_B_iso_or_equiv
  _atom_site_type_symbol
  Ir1      1.0000 0.41980  0.00000  0.59763  Biso   1.000  Ir
  Ir2      1.0000 0.59757  0.50000  0.41979  Biso   1.000  Ir
  O1       1.0000 0.28394  0.50000  0.09798  Biso   1.000  O
  O2       1.0000 0.86812  0.50000  0.37011  Biso   1.000  O
  O3       1.0000 0.37047  0.00000  0.86848  Biso   1.000  O
  O4       1.0000 0.09801  0.00000  0.28388  Biso   1.000  O
  O5       1.0000 0.62204  0.75004  0.62207  Biso   1.000  O
  O6       1.0000 0.62204  0.24996  0.62207  Biso   1.000  O
