data_image0
_cell_length_a       11.3776
_cell_length_b       11.3776
_cell_length_c       6.11938
_cell_angle_alpha    90
_cell_angle_beta     90
_cell_angle_gamma    90

_symmetry_space_group_name_H-M    "P 1"
_symmetry_int_tables_number       1

loop_
  _symmetry_equiv_pos_as_xyz
  'x, y, z'

loop_
  _atom_site_label
  _atom_site_occupancy
  _atom_site_fract_x
  _atom_site_fract_y
  _atom_site_fract_z
  _atom_site_thermal_displace_type
  _atom_site_B_iso_or_equiv
  _atom_site_type_symbol
  O1       1.0000 0.14736  0.56114  0.11341  Biso   1.000  O
  O2       1.0000 0.85264  0.43886  0.11341  Biso   1.000  O
  O3       1.0000 0.56114  0.85264  0.88659  Biso   1.000  O
  O4       1.0000 0.43886  0.14736  0.88659  Biso   1.000  O
  O5       1.0000 0.35264  0.06114  0.38659  Biso   1.000  O
  O6       1.0000 0.64736  0.93886  0.38659  Biso   1.000  O
  O7       1.0000 0.93886  0.35264  0.61341  Biso   1.000  O
  O8       1.0000 0.06114  0.64736  0.61341  Biso   1.000  O
  O9       1.0000 0.10779  0.24762  0.17222  Biso   1.000  O
  O10      1.0000 0.89221  0.75238  0.17222  Biso   1.000  O
  O11      1.0000 0.24762  0.89221  0.82778  Biso   1.000  O
  O12      1.0000 0.75238  0.10779  0.82778  Biso   1.000  O
  O13      1.0000 0.39221  0.74762  0.32778  Biso   1.000  O
  O14      1.0000 0.60779  0.25238  0.32778  Biso   1.000  O
  O15      1.0000 0.25238  0.39221  0.67222  Biso   1.000  O
  O16      1.0000 0.74762  0.60779  0.67222  Biso   1.000  O
  O17      1.0000 0.37999  0.39752  0.17555  Biso   1.000  O
  O18      1.0000 0.62001  0.60248  0.17555  Biso   1.000  O
  O19      1.0000 0.39752  0.62001  0.82445  Biso   1.000  O
  O20      1.0000 0.60248  0.37999  0.82445  Biso   1.000  O
  O21      1.0000 0.12001  0.89752  0.32445  Biso   1.000  O
  O22      1.0000 0.87999  0.10248  0.32445  Biso   1.000  O
  O23      1.0000 0.10248  0.12001  0.67555  Biso   1.000  O
  O24      1.0000 0.89752  0.87999  0.67555  Biso   1.000  O
  Ir1      1.0000 0.48781  0.73201  0.06509  Biso   1.000  Ir
  Ir2      1.0000 0.51219  0.26799  0.06509  Biso   1.000  Ir
  Ir3      1.0000 0.73201  0.51219  0.93491  Biso   1.000  Ir
  Ir4      1.0000 0.26799  0.48781  0.93491  Biso   1.000  Ir
  Ir5      1.0000 0.01219  0.23201  0.43491  Biso   1.000  Ir
  Ir6      1.0000 0.98781  0.76799  0.43491  Biso   1.000  Ir
  Ir7      1.0000 0.76799  0.01219  0.56509  Biso   1.000  Ir
  Ir8      1.0000 0.23201  0.98781  0.56509  Biso   1.000  Ir
