data_image0
_cell_length_a       24.0066
_cell_length_b       5.88672
_cell_length_c       20.2577
_cell_angle_alpha    90
_cell_angle_beta     90
_cell_angle_gamma    90

_symmetry_space_group_name_H-M    "P 1"
_symmetry_int_tables_number       1

loop_
  _symmetry_equiv_pos_as_xyz
  'x, y, z'

loop_
  _atom_site_label
  _atom_site_occupancy
  _atom_site_fract_x
  _atom_site_fract_y
  _atom_site_fract_z
  _atom_site_thermal_displace_type
  _atom_site_B_iso_or_equiv
  _atom_site_type_symbol
  O1       1.0000 0.69946  0.25057  0.16651  Biso   1.000  O
  O2       1.0000 0.30054  0.74943  0.16651  Biso   1.000  O
  O3       1.0000 0.69946  0.74943  0.16651  Biso   1.000  O
  O4       1.0000 0.30054  0.25057  0.16651  Biso   1.000  O
  O5       1.0000 0.00000  0.00000  0.37540  Biso   1.000  O
  O6       1.0000 0.19983  0.00000  0.20866  Biso   1.000  O
  O7       1.0000 0.80017  0.00000  0.20866  Biso   1.000  O
  O8       1.0000 0.90016  0.74770  0.16680  Biso   1.000  O
  O9       1.0000 0.09984  0.25229  0.16680  Biso   1.000  O
  O10      1.0000 0.90016  0.25229  0.16680  Biso   1.000  O
  O11      1.0000 0.09984  0.74770  0.16680  Biso   1.000  O
  O12      1.0000 0.90005  0.75103  0.41676  Biso   1.000  O
  O13      1.0000 0.09995  0.24897  0.41676  Biso   1.000  O
  O14      1.0000 0.90005  0.24897  0.41676  Biso   1.000  O
  O15      1.0000 0.09995  0.75103  0.41676  Biso   1.000  O
  O16      1.0000 0.00000  0.24926  0.25067  Biso   1.000  O
  O17      1.0000 0.00000  0.75074  0.25067  Biso   1.000  O
  O18      1.0000 0.19940  0.24842  0.33186  Biso   1.000  O
  O19      1.0000 0.80060  0.75158  0.33186  Biso   1.000  O
  O20      1.0000 0.19940  0.75158  0.33186  Biso   1.000  O
  O21      1.0000 0.80060  0.24842  0.33186  Biso   1.000  O
  O22      1.0000 0.90029  0.50000  0.29243  Biso   1.000  O
  O23      1.0000 0.09971  0.50000  0.29243  Biso   1.000  O
  O24      1.0000 0.30033  0.50000  0.29145  Biso   1.000  O
  O25      1.0000 0.69967  0.50000  0.29145  Biso   1.000  O
  O26      1.0000 0.50000  0.50000  0.12671  Biso   1.000  O
  O27      1.0000 0.69937  0.75154  0.41624  Biso   1.000  O
  O28      1.0000 0.30063  0.24845  0.41624  Biso   1.000  O
  O29      1.0000 0.69937  0.24845  0.41624  Biso   1.000  O
  O30      1.0000 0.30063  0.75154  0.41624  Biso   1.000  O
  O31      1.0000 0.90004  0.50000  0.04071  Biso   1.000  O
  O32      1.0000 0.09996  0.50000  0.04071  Biso   1.000  O
  O33      1.0000 0.80054  0.24915  0.08192  Biso   1.000  O
  O34      1.0000 0.19946  0.75085  0.08192  Biso   1.000  O
  O35      1.0000 0.80054  0.75085  0.08192  Biso   1.000  O
  O36      1.0000 0.19946  0.24915  0.08192  Biso   1.000  O
  O37      1.0000 0.19988  0.50000  0.45661  Biso   1.000  O
  O38      1.0000 0.80012  0.50000  0.45661  Biso   1.000  O
  O39      1.0000 0.50000  0.00000  0.37453  Biso   1.000  O
  O40      1.0000 0.00000  0.00000  0.12293  Biso   1.000  O
  O41      1.0000 0.30008  0.50000  0.03960  Biso   1.000  O
  O42      1.0000 0.69992  0.50000  0.03960  Biso   1.000  O
  O43      1.0000 0.59996  0.75218  0.08253  Biso   1.000  O
  O44      1.0000 0.40004  0.24782  0.08253  Biso   1.000  O
  O45      1.0000 0.59996  0.24782  0.08253  Biso   1.000  O
  O46      1.0000 0.40004  0.75218  0.08253  Biso   1.000  O
  O47      1.0000 0.40007  0.50000  0.45710  Biso   1.000  O
  O48      1.0000 0.59993  0.50000  0.45710  Biso   1.000  O
  O49      1.0000 0.40025  0.24922  0.33262  Biso   1.000  O
  O50      1.0000 0.59975  0.75078  0.33262  Biso   1.000  O
  O51      1.0000 0.40025  0.75078  0.33262  Biso   1.000  O
  O52      1.0000 0.59975  0.24922  0.33262  Biso   1.000  O
  O53      1.0000 0.00000  0.75189  0.00053  Biso   1.000  O
  O54      1.0000 0.00000  0.24811  0.00053  Biso   1.000  O
  O55      1.0000 0.50000  0.75069  0.49912  Biso   1.000  O
  O56      1.0000 0.50000  0.24931  0.49912  Biso   1.000  O
  O57      1.0000 0.40017  0.00000  0.20862  Biso   1.000  O
  O58      1.0000 0.59983  0.00000  0.20862  Biso   1.000  O
  O59      1.0000 0.50000  0.74813  0.24920  Biso   1.000  O
  O60      1.0000 0.50000  0.25187  0.24920  Biso   1.000  O
  O61      1.0000 0.69946  0.75057  0.66651  Biso   1.000  O
  O62      1.0000 0.30054  0.24943  0.66651  Biso   1.000  O
  O63      1.0000 0.69946  0.24943  0.66651  Biso   1.000  O
  O64      1.0000 0.30054  0.75057  0.66651  Biso   1.000  O
  O65      1.0000 0.00000  0.50000  0.87540  Biso   1.000  O
  O66      1.0000 0.19983  0.50000  0.70866  Biso   1.000  O
  O67      1.0000 0.80017  0.50000  0.70866  Biso   1.000  O
  O68      1.0000 0.90016  0.24770  0.66680  Biso   1.000  O
  O69      1.0000 0.09984  0.75229  0.66680  Biso   1.000  O
  O70      1.0000 0.90016  0.75229  0.66680  Biso   1.000  O
  O71      1.0000 0.09984  0.24770  0.66680  Biso   1.000  O
  O72      1.0000 0.90005  0.25103  0.91676  Biso   1.000  O
  O73      1.0000 0.09995  0.74897  0.91676  Biso   1.000  O
  O74      1.0000 0.90005  0.74897  0.91676  Biso   1.000  O
  O75      1.0000 0.09995  0.25103  0.91676  Biso   1.000  O
  O76      1.0000 0.00000  0.74926  0.75067  Biso   1.000  O
  O77      1.0000 0.00000  0.25074  0.75067  Biso   1.000  O
  O78      1.0000 0.19940  0.74842  0.83186  Biso   1.000  O
  O79      1.0000 0.80060  0.25158  0.83186  Biso   1.000  O
  O80      1.0000 0.19940  0.25158  0.83186  Biso   1.000  O
  O81      1.0000 0.80060  0.74842  0.83186  Biso   1.000  O
  O82      1.0000 0.90029  0.00000  0.79243  Biso   1.000  O
  O83      1.0000 0.09971  0.00000  0.79243  Biso   1.000  O
  O84      1.0000 0.30033  0.00000  0.79145  Biso   1.000  O
  O85      1.0000 0.69967  0.00000  0.79145  Biso   1.000  O
  O86      1.0000 0.50000  0.00000  0.62671  Biso   1.000  O
  O87      1.0000 0.69937  0.25155  0.91624  Biso   1.000  O
  O88      1.0000 0.30063  0.74845  0.91624  Biso   1.000  O
  O89      1.0000 0.69937  0.74845  0.91624  Biso   1.000  O
  O90      1.0000 0.30063  0.25155  0.91624  Biso   1.000  O
  O91      1.0000 0.90004  0.00000  0.54071  Biso   1.000  O
  O92      1.0000 0.09996  0.00000  0.54071  Biso   1.000  O
  O93      1.0000 0.80054  0.74915  0.58192  Biso   1.000  O
  O94      1.0000 0.19946  0.25085  0.58192  Biso   1.000  O
  O95      1.0000 0.80054  0.25085  0.58192  Biso   1.000  O
  O96      1.0000 0.19946  0.74915  0.58192  Biso   1.000  O
  O97      1.0000 0.19988  0.00000  0.95661  Biso   1.000  O
  O98      1.0000 0.80012  0.00000  0.95661  Biso   1.000  O
  O99      1.0000 0.50000  0.50000  0.87453  Biso   1.000  O
  O100     1.0000 0.00000  0.50000  0.62293  Biso   1.000  O
  O101     1.0000 0.30008  0.00000  0.53960  Biso   1.000  O
  O102     1.0000 0.69992  0.00000  0.53960  Biso   1.000  O
  O103     1.0000 0.59996  0.25218  0.58253  Biso   1.000  O
  O104     1.0000 0.40004  0.74782  0.58253  Biso   1.000  O
  O105     1.0000 0.59996  0.74782  0.58253  Biso   1.000  O
  O106     1.0000 0.40004  0.25218  0.58253  Biso   1.000  O
  O107     1.0000 0.40007  0.00000  0.95710  Biso   1.000  O
  O108     1.0000 0.59993  0.00000  0.95710  Biso   1.000  O
  O109     1.0000 0.40025  0.74922  0.83262  Biso   1.000  O
  O110     1.0000 0.59975  0.25078  0.83262  Biso   1.000  O
  O111     1.0000 0.40025  0.25078  0.83262  Biso   1.000  O
  O112     1.0000 0.59975  0.74922  0.83262  Biso   1.000  O
  O113     1.0000 0.00000  0.25189  0.50053  Biso   1.000  O
  O114     1.0000 0.00000  0.74811  0.50053  Biso   1.000  O
  O115     1.0000 0.50000  0.25069  0.99913  Biso   1.000  O
  O116     1.0000 0.50000  0.74931  0.99913  Biso   1.000  O
  O117     1.0000 0.40017  0.50000  0.70862  Biso   1.000  O
  O118     1.0000 0.59983  0.50000  0.70862  Biso   1.000  O
  O119     1.0000 0.50000  0.24813  0.74920  Biso   1.000  O
  O120     1.0000 0.50000  0.75187  0.74920  Biso   1.000  O
  Ir1      1.0000 0.70144  0.00000  0.04200  Biso   1.000  Ir
  Ir2      1.0000 0.29856  0.00000  0.04200  Biso   1.000  Ir
  Ir3      1.0000 0.50000  0.50000  0.37580  Biso   1.000  Ir
  Ir4      1.0000 0.10013  0.00000  0.04248  Biso   1.000  Ir
  Ir5      1.0000 0.89987  0.00000  0.04248  Biso   1.000  Ir
  Ir6      1.0000 0.59977  0.00000  0.45907  Biso   1.000  Ir
  Ir7      1.0000 0.40023  0.00000  0.45907  Biso   1.000  Ir
  Ir8      1.0000 0.20125  0.50000  0.20622  Biso   1.000  Ir
  Ir9      1.0000 0.79875  0.50000  0.20622  Biso   1.000  Ir
  Ir10     1.0000 0.60001  0.50000  0.20676  Biso   1.000  Ir
  Ir11     1.0000 0.39999  0.50000  0.20676  Biso   1.000  Ir
  Ir12     1.0000 0.00000  0.50000  0.12621  Biso   1.000  Ir
  Ir13     1.0000 0.00000  0.50000  0.37435  Biso   1.000  Ir
  Ir14     1.0000 0.79816  0.00000  0.45825  Biso   1.000  Ir
  Ir15     1.0000 0.20184  0.00000  0.45825  Biso   1.000  Ir
  Ir16     1.0000 0.29834  0.00000  0.29014  Biso   1.000  Ir
  Ir17     1.0000 0.70166  0.00000  0.29014  Biso   1.000  Ir
  Ir18     1.0000 0.50000  0.00000  0.12319  Biso   1.000  Ir
  Ir19     1.0000 0.90037  0.00000  0.29036  Biso   1.000  Ir
  Ir20     1.0000 0.09963  0.00000  0.29036  Biso   1.000  Ir
  Ir21     1.0000 0.70144  0.50000  0.54200  Biso   1.000  Ir
  Ir22     1.0000 0.29856  0.50000  0.54200  Biso   1.000  Ir
  Ir23     1.0000 0.50000  0.00000  0.87580  Biso   1.000  Ir
  Ir24     1.0000 0.10013  0.50000  0.54248  Biso   1.000  Ir
  Ir25     1.0000 0.89987  0.50000  0.54248  Biso   1.000  Ir
  Ir26     1.0000 0.59977  0.50000  0.95907  Biso   1.000  Ir
  Ir27     1.0000 0.40023  0.50000  0.95907  Biso   1.000  Ir
  Ir28     1.0000 0.20125  0.00000  0.70622  Biso   1.000  Ir
  Ir29     1.0000 0.79875  0.00000  0.70622  Biso   1.000  Ir
  Ir30     1.0000 0.60001  0.00000  0.70676  Biso   1.000  Ir
  Ir31     1.0000 0.39999  0.00000  0.70676  Biso   1.000  Ir
  Ir32     1.0000 0.00000  0.00000  0.62621  Biso   1.000  Ir
  Ir33     1.0000 0.00000  0.00000  0.87435  Biso   1.000  Ir
  Ir34     1.0000 0.79816  0.50000  0.95825  Biso   1.000  Ir
  Ir35     1.0000 0.20184  0.50000  0.95825  Biso   1.000  Ir
  Ir36     1.0000 0.29834  0.50000  0.79014  Biso   1.000  Ir
  Ir37     1.0000 0.70166  0.50000  0.79014  Biso   1.000  Ir
  Ir38     1.0000 0.50000  0.50000  0.62319  Biso   1.000  Ir
  Ir39     1.0000 0.90037  0.50000  0.79036  Biso   1.000  Ir
  Ir40     1.0000 0.09963  0.50000  0.79036  Biso   1.000  Ir
