data_image0
_cell_length_a       8.80417
_cell_length_b       5.28788
_cell_length_c       3.59492
_cell_angle_alpha    90
_cell_angle_beta     90
_cell_angle_gamma    90

_symmetry_space_group_name_H-M    "P 1"
_symmetry_int_tables_number       1

loop_
  _symmetry_equiv_pos_as_xyz
  'x, y, z'

loop_
  _atom_site_label
  _atom_site_occupancy
  _atom_site_fract_x
  _atom_site_fract_y
  _atom_site_fract_z
  _atom_site_thermal_displace_type
  _atom_site_B_iso_or_equiv
  _atom_site_type_symbol
  Ir1      1.0000 0.00000  0.72915  0.07485  Biso   1.000  Ir
  Ir2      1.0000 0.00000  0.27085  0.57485  Biso   1.000  Ir
  Ir3      1.0000 0.50000  0.22915  0.07485  Biso   1.000  Ir
  Ir4      1.0000 0.50000  0.77085  0.57485  Biso   1.000  Ir
  O1       1.0000 0.00000  0.63038  0.57490  Biso   1.000  O
  O2       1.0000 0.00000  0.36962  0.07490  Biso   1.000  O
  O3       1.0000 0.33885  0.45012  0.07528  Biso   1.000  O
  O4       1.0000 0.66115  0.54988  0.57528  Biso   1.000  O
  O5       1.0000 0.33885  0.54988  0.57528  Biso   1.000  O
  O6       1.0000 0.66115  0.45012  0.07528  Biso   1.000  O
  O7       1.0000 0.50000  0.13038  0.57490  Biso   1.000  O
  O8       1.0000 0.50000  0.86962  0.07490  Biso   1.000  O
  O9       1.0000 0.83885  0.95012  0.07528  Biso   1.000  O
  O10      1.0000 0.16115  0.04988  0.57528  Biso   1.000  O
  O11      1.0000 0.83885  0.04988  0.57528  Biso   1.000  O
  O12      1.0000 0.16115  0.95012  0.07528  Biso   1.000  O
