data_image0
_cell_length_a       11.3593
_cell_length_b       11.3593
_cell_length_c       8.00337
_cell_angle_alpha    90
_cell_angle_beta     90
_cell_angle_gamma    90

_symmetry_space_group_name_H-M    "P 1"
_symmetry_int_tables_number       1

loop_
  _symmetry_equiv_pos_as_xyz
  'x, y, z'

loop_
  _atom_site_label
  _atom_site_occupancy
  _atom_site_fract_x
  _atom_site_fract_y
  _atom_site_fract_z
  _atom_site_thermal_displace_type
  _atom_site_B_iso_or_equiv
  _atom_site_type_symbol
  Ir1      1.0000 0.50000  0.66356  0.32840  Biso   1.000  Ir
  Ir2      1.0000 0.50000  0.33644  0.32840  Biso   1.000  Ir
  Ir3      1.0000 0.83644  0.00000  0.32840  Biso   1.000  Ir
  Ir4      1.0000 0.16356  0.00000  0.32840  Biso   1.000  Ir
  Ir5      1.0000 0.00000  0.16356  0.67160  Biso   1.000  Ir
  Ir6      1.0000 0.00000  0.83644  0.67160  Biso   1.000  Ir
  Ir7      1.0000 0.66356  0.50000  0.67160  Biso   1.000  Ir
  Ir8      1.0000 0.33644  0.50000  0.67160  Biso   1.000  Ir
  Ir9      1.0000 0.50000  0.00000  0.41227  Biso   1.000  Ir
  Ir10     1.0000 0.00000  0.50000  0.58773  Biso   1.000  Ir
  Ir11     1.0000 0.50000  0.00000  0.90930  Biso   1.000  Ir
  Ir12     1.0000 0.00000  0.50000  0.09070  Biso   1.000  Ir
  Ir13     1.0000 0.75000  0.75000  0.00000  Biso   1.000  Ir
  Ir14     1.0000 0.25000  0.25000  0.00000  Biso   1.000  Ir
  Ir15     1.0000 0.75000  0.25000  0.00000  Biso   1.000  Ir
  Ir16     1.0000 0.25000  0.75000  0.00000  Biso   1.000  Ir
  O1       1.0000 0.50000  0.50000  0.75506  Biso   1.000  O
  O2       1.0000 0.00000  0.00000  0.75506  Biso   1.000  O
  O3       1.0000 0.00000  0.00000  0.24494  Biso   1.000  O
  O4       1.0000 0.50000  0.50000  0.24494  Biso   1.000  O
  O5       1.0000 0.62343  0.62343  0.50000  Biso   1.000  O
  O6       1.0000 0.37657  0.37657  0.50000  Biso   1.000  O
  O7       1.0000 0.87657  0.12343  0.50000  Biso   1.000  O
  O8       1.0000 0.12343  0.87657  0.50000  Biso   1.000  O
  O9       1.0000 0.87657  0.87657  0.50000  Biso   1.000  O
  O10      1.0000 0.12343  0.12343  0.50000  Biso   1.000  O
  O11      1.0000 0.62343  0.37657  0.50000  Biso   1.000  O
  O12      1.0000 0.37657  0.62343  0.50000  Biso   1.000  O
  O13      1.0000 0.50000  0.82641  0.41081  Biso   1.000  O
  O14      1.0000 0.50000  0.17359  0.41081  Biso   1.000  O
  O15      1.0000 0.67359  0.00000  0.41081  Biso   1.000  O
  O16      1.0000 0.32641  0.00000  0.41081  Biso   1.000  O
  O17      1.0000 0.00000  0.32641  0.58920  Biso   1.000  O
  O18      1.0000 0.00000  0.67359  0.58920  Biso   1.000  O
  O19      1.0000 0.82641  0.50000  0.58920  Biso   1.000  O
  O20      1.0000 0.17359  0.50000  0.58920  Biso   1.000  O
  O21      1.0000 0.37125  0.87125  0.90925  Biso   1.000  O
  O22      1.0000 0.62875  0.12875  0.90925  Biso   1.000  O
  O23      1.0000 0.62875  0.87125  0.90925  Biso   1.000  O
  O24      1.0000 0.37125  0.12875  0.90925  Biso   1.000  O
  O25      1.0000 0.12875  0.37125  0.09075  Biso   1.000  O
  O26      1.0000 0.87125  0.62875  0.09075  Biso   1.000  O
  O27      1.0000 0.87125  0.37125  0.09075  Biso   1.000  O
  O28      1.0000 0.12875  0.62875  0.09075  Biso   1.000  O
  O29      1.0000 0.37221  0.69806  0.16299  Biso   1.000  O
  O30      1.0000 0.62779  0.30194  0.16299  Biso   1.000  O
  O31      1.0000 0.80194  0.87221  0.16299  Biso   1.000  O
  O32      1.0000 0.19806  0.12779  0.16299  Biso   1.000  O
  O33      1.0000 0.12779  0.19806  0.83701  Biso   1.000  O
  O34      1.0000 0.87221  0.80194  0.83701  Biso   1.000  O
  O35      1.0000 0.69806  0.37221  0.83701  Biso   1.000  O
  O36      1.0000 0.30194  0.62779  0.83701  Biso   1.000  O
  O37      1.0000 0.12779  0.80194  0.83701  Biso   1.000  O
  O38      1.0000 0.87221  0.19806  0.83701  Biso   1.000  O
  O39      1.0000 0.69806  0.62779  0.83701  Biso   1.000  O
  O40      1.0000 0.30194  0.37221  0.83701  Biso   1.000  O
  O41      1.0000 0.37221  0.30194  0.16299  Biso   1.000  O
  O42      1.0000 0.62779  0.69806  0.16299  Biso   1.000  O
  O43      1.0000 0.80194  0.12779  0.16299  Biso   1.000  O
  O44      1.0000 0.19806  0.87221  0.16299  Biso   1.000  O
  O45      1.0000 0.50000  0.00000  0.15861  Biso   1.000  O
  O46      1.0000 0.00000  0.50000  0.84139  Biso   1.000  O
  O47      1.0000 0.50000  0.00000  0.66211  Biso   1.000  O
  O48      1.0000 0.00000  0.50000  0.33789  Biso   1.000  O
