data_image0
_cell_length_a       3.62809
_cell_length_b       3.65364
_cell_length_c       15.3101
_cell_angle_alpha    90
_cell_angle_beta     90
_cell_angle_gamma    90

_symmetry_space_group_name_H-M    "P 1"
_symmetry_int_tables_number       1

loop_
  _symmetry_equiv_pos_as_xyz
  'x, y, z'

loop_
  _atom_site_label
  _atom_site_occupancy
  _atom_site_fract_x
  _atom_site_fract_y
  _atom_site_fract_z
  _atom_site_thermal_displace_type
  _atom_site_B_iso_or_equiv
  _atom_site_type_symbol
  Ir1      1.0000 0.00000  0.50000  0.09164  Biso   1.000  Ir
  Ir2      1.0000 0.50000  0.00000  0.90836  Biso   1.000  Ir
  Ir3      1.0000 0.00000  0.00000  0.59160  Biso   1.000  Ir
  Ir4      1.0000 0.50000  0.50000  0.40840  Biso   1.000  Ir
  O1       1.0000 0.00000  0.50000  0.93012  Biso   1.000  O
  O2       1.0000 0.50000  0.00000  0.06988  Biso   1.000  O
  O3       1.0000 0.00000  0.00000  0.80171  Biso   1.000  O
  O4       1.0000 0.50000  0.50000  0.19829  Biso   1.000  O
  O5       1.0000 0.00000  0.00000  0.20067  Biso   1.000  O
  O6       1.0000 0.50000  0.50000  0.79934  Biso   1.000  O
  O7       1.0000 0.00000  0.50000  0.70063  Biso   1.000  O
  O8       1.0000 0.50000  0.00000  0.29937  Biso   1.000  O
  O9       1.0000 0.00000  0.50000  0.30175  Biso   1.000  O
  O10      1.0000 0.50000  0.00000  0.69825  Biso   1.000  O
  O11      1.0000 0.00000  0.00000  0.43010  Biso   1.000  O
  O12      1.0000 0.50000  0.50000  0.56990  Biso   1.000  O
