data_image0
_cell_length_a       14.7974
_cell_length_b       5.14187
_cell_length_c       14.6476
_cell_angle_alpha    90
_cell_angle_beta     90.6253
_cell_angle_gamma    90

_symmetry_space_group_name_H-M    "P 1"
_symmetry_int_tables_number       1

loop_
  _symmetry_equiv_pos_as_xyz
  'x, y, z'

loop_
  _atom_site_label
  _atom_site_occupancy
  _atom_site_fract_x
  _atom_site_fract_y
  _atom_site_fract_z
  _atom_site_thermal_displace_type
  _atom_site_B_iso_or_equiv
  _atom_site_type_symbol
  Ir1      1.0000 0.10024  0.00122  0.35924  Biso   1.000  Ir
  Ir2      1.0000 0.39976  0.50122  0.14076  Biso   1.000  Ir
  Ir3      1.0000 0.39976  0.49878  0.64076  Biso   1.000  Ir
  Ir4      1.0000 0.10024  0.99878  0.85924  Biso   1.000  Ir
  Ir5      1.0000 0.38624  0.01449  0.34400  Biso   1.000  Ir
  Ir6      1.0000 0.11376  0.51449  0.15600  Biso   1.000  Ir
  Ir7      1.0000 0.11376  0.48551  0.65600  Biso   1.000  Ir
  Ir8      1.0000 0.38624  0.98551  0.84400  Biso   1.000  Ir
  Ir9      1.0000 0.60024  0.50122  0.35924  Biso   1.000  Ir
  Ir10     1.0000 0.89976  0.00122  0.14076  Biso   1.000  Ir
  Ir11     1.0000 0.89976  0.99878  0.64076  Biso   1.000  Ir
  Ir12     1.0000 0.60024  0.49878  0.85924  Biso   1.000  Ir
  Ir13     1.0000 0.88624  0.51449  0.34400  Biso   1.000  Ir
  Ir14     1.0000 0.61376  0.01449  0.15600  Biso   1.000  Ir
  Ir15     1.0000 0.61376  0.98551  0.65600  Biso   1.000  Ir
  Ir16     1.0000 0.88624  0.48551  0.84400  Biso   1.000  Ir
  O1       1.0000 0.34131  0.75370  0.49554  Biso   1.000  O
  O2       1.0000 0.15869  0.25370  0.00446  Biso   1.000  O
  O3       1.0000 0.15869  0.74630  0.50446  Biso   1.000  O
  O4       1.0000 0.34131  0.24630  0.99554  Biso   1.000  O
  O5       1.0000 0.45163  0.25066  0.49397  Biso   1.000  O
  O6       1.0000 0.04837  0.75066  0.00603  Biso   1.000  O
  O7       1.0000 0.04837  0.24934  0.50603  Biso   1.000  O
  O8       1.0000 0.45163  0.74934  0.99397  Biso   1.000  O
  O9       1.0000 0.24705  0.27153  0.40909  Biso   1.000  O
  O10      1.0000 0.25295  0.77153  0.09091  Biso   1.000  O
  O11      1.0000 0.25295  0.22848  0.59091  Biso   1.000  O
  O12      1.0000 0.24705  0.72847  0.90909  Biso   1.000  O
  O13      1.0000 0.06681  0.49907  0.32935  Biso   1.000  O
  O14      1.0000 0.43319  0.99907  0.17065  Biso   1.000  O
  O15      1.0000 0.43319  0.00093  0.67065  Biso   1.000  O
  O16      1.0000 0.06681  0.50093  0.82935  Biso   1.000  O
  O17      1.0000 0.42554  0.51162  0.32271  Biso   1.000  O
  O18      1.0000 0.07446  0.01162  0.17729  Biso   1.000  O
  O19      1.0000 0.07446  0.98838  0.67729  Biso   1.000  O
  O20      1.0000 0.42554  0.48838  0.82271  Biso   1.000  O
  O21      1.0000 0.24210  0.74304  0.29787  Biso   1.000  O
  O22      1.0000 0.25790  0.24304  0.20213  Biso   1.000  O
  O23      1.0000 0.25790  0.75696  0.70213  Biso   1.000  O
  O24      1.0000 0.24210  0.25696  0.79787  Biso   1.000  O
  O25      1.0000 0.84131  0.25370  0.49554  Biso   1.000  O
  O26      1.0000 0.65869  0.75370  0.00446  Biso   1.000  O
  O27      1.0000 0.65869  0.24630  0.50446  Biso   1.000  O
  O28      1.0000 0.84131  0.74630  0.99554  Biso   1.000  O
  O29      1.0000 0.95163  0.75066  0.49397  Biso   1.000  O
  O30      1.0000 0.54837  0.25066  0.00603  Biso   1.000  O
  O31      1.0000 0.54837  0.74934  0.50603  Biso   1.000  O
  O32      1.0000 0.95163  0.24934  0.99397  Biso   1.000  O
  O33      1.0000 0.74705  0.77153  0.40909  Biso   1.000  O
  O34      1.0000 0.75295  0.27153  0.09091  Biso   1.000  O
  O35      1.0000 0.75295  0.72847  0.59091  Biso   1.000  O
  O36      1.0000 0.74705  0.22848  0.90909  Biso   1.000  O
  O37      1.0000 0.56681  0.99907  0.32935  Biso   1.000  O
  O38      1.0000 0.93319  0.49907  0.17065  Biso   1.000  O
  O39      1.0000 0.93319  0.50093  0.67065  Biso   1.000  O
  O40      1.0000 0.56681  0.00093  0.82935  Biso   1.000  O
  O41      1.0000 0.92554  0.01162  0.32271  Biso   1.000  O
  O42      1.0000 0.57446  0.51162  0.17729  Biso   1.000  O
  O43      1.0000 0.57446  0.48838  0.67729  Biso   1.000  O
  O44      1.0000 0.92554  0.98838  0.82271  Biso   1.000  O
  O45      1.0000 0.74210  0.24304  0.29787  Biso   1.000  O
  O46      1.0000 0.75791  0.74304  0.20213  Biso   1.000  O
  O47      1.0000 0.75791  0.25696  0.70213  Biso   1.000  O
  O48      1.0000 0.74210  0.75696  0.79787  Biso   1.000  O
