data_image0
_cell_length_a       5.54209
_cell_length_b       13.7181
_cell_length_c       4.8824
_cell_angle_alpha    90
_cell_angle_beta     90
_cell_angle_gamma    90

_symmetry_space_group_name_H-M    "P 1"
_symmetry_int_tables_number       1

loop_
  _symmetry_equiv_pos_as_xyz
  'x, y, z'

loop_
  _atom_site_label
  _atom_site_occupancy
  _atom_site_fract_x
  _atom_site_fract_y
  _atom_site_fract_z
  _atom_site_thermal_displace_type
  _atom_site_B_iso_or_equiv
  _atom_site_type_symbol
  Ir1      1.0000 0.00000  0.00000  0.00923  Biso   1.000  Ir
  Ir2      1.0000 0.50000  0.50000  0.99077  Biso   1.000  Ir
  Ir3      1.0000 0.00000  0.33560  0.66691  Biso   1.000  Ir
  Ir4      1.0000 0.00000  0.66440  0.66691  Biso   1.000  Ir
  Ir5      1.0000 0.50000  0.83560  0.33309  Biso   1.000  Ir
  Ir6      1.0000 0.50000  0.16440  0.33309  Biso   1.000  Ir
  O1       1.0000 0.00000  0.50000  0.98111  Biso   1.000  O
  O2       1.0000 0.50000  0.00000  0.01889  Biso   1.000  O
  O3       1.0000 0.74879  0.66755  0.16530  Biso   1.000  O
  O4       1.0000 0.25121  0.33245  0.16530  Biso   1.000  O
  O5       1.0000 0.75121  0.16755  0.83470  Biso   1.000  O
  O6       1.0000 0.24879  0.83245  0.83470  Biso   1.000  O
  O7       1.0000 0.75121  0.83245  0.83470  Biso   1.000  O
  O8       1.0000 0.24879  0.16755  0.83470  Biso   1.000  O
  O9       1.0000 0.74879  0.33245  0.16530  Biso   1.000  O
  O10      1.0000 0.25121  0.66755  0.16530  Biso   1.000  O
  O11      1.0000 0.00000  0.83469  0.33702  Biso   1.000  O
  O12      1.0000 0.00000  0.16530  0.33702  Biso   1.000  O
  O13      1.0000 0.50000  0.33470  0.66298  Biso   1.000  O
  O14      1.0000 0.50000  0.66531  0.66298  Biso   1.000  O
  O15      1.0000 0.75174  0.00000  0.50873  Biso   1.000  O
  O16      1.0000 0.24827  0.00000  0.50873  Biso   1.000  O
  O17      1.0000 0.74826  0.50000  0.49127  Biso   1.000  O
  O18      1.0000 0.25173  0.50000  0.49127  Biso   1.000  O
