data_image0
_cell_length_a       5.47982
_cell_length_b       8.21838
_cell_length_c       4.07321
_cell_angle_alpha    90
_cell_angle_beta     100.918
_cell_angle_gamma    90

_symmetry_space_group_name_H-M    "P 1"
_symmetry_int_tables_number       1

loop_
  _symmetry_equiv_pos_as_xyz
  'x, y, z'

loop_
  _atom_site_label
  _atom_site_occupancy
  _atom_site_fract_x
  _atom_site_fract_y
  _atom_site_fract_z
  _atom_site_thermal_displace_type
  _atom_site_B_iso_or_equiv
  _atom_site_type_symbol
  O1       1.0000 0.75022  0.17360  0.74518  Biso   1.000  O
  O2       1.0000 0.24978  0.17360  0.25482  Biso   1.000  O
  O3       1.0000 0.75018  0.83339  0.75035  Biso   1.000  O
  O4       1.0000 0.24982  0.83339  0.24965  Biso   1.000  O
  O5       1.0000 0.25016  0.99297  0.75403  Biso   1.000  O
  O6       1.0000 0.74984  0.99297  0.24597  Biso   1.000  O
  O7       1.0000 0.25022  0.67360  0.74518  Biso   1.000  O
  O8       1.0000 0.74978  0.67360  0.25482  Biso   1.000  O
  O9       1.0000 0.25018  0.33339  0.75035  Biso   1.000  O
  O10      1.0000 0.74982  0.33339  0.24965  Biso   1.000  O
  O11      1.0000 0.75016  0.49297  0.75403  Biso   1.000  O
  O12      1.0000 0.24984  0.49297  0.24597  Biso   1.000  O
  Ir1      1.0000 0.50000  0.33519  0.50000  Biso   1.000  Ir
  Ir2      1.0000 0.50000  0.83115  0.00000  Biso   1.000  Ir
  Ir3      1.0000 0.00000  0.83519  0.50000  Biso   1.000  Ir
  Ir4      1.0000 0.00000  0.33115  0.00000  Biso   1.000  Ir
