data_image0
_cell_length_a       8.08632
_cell_length_b       9.70737
_cell_length_c       4.83371
_cell_angle_alpha    90
_cell_angle_beta     104.638
_cell_angle_gamma    90

_symmetry_space_group_name_H-M    "P 1"
_symmetry_int_tables_number       1

loop_
  _symmetry_equiv_pos_as_xyz
  'x, y, z'

loop_
  _atom_site_label
  _atom_site_occupancy
  _atom_site_fract_x
  _atom_site_fract_y
  _atom_site_fract_z
  _atom_site_thermal_displace_type
  _atom_site_B_iso_or_equiv
  _atom_site_type_symbol
  Ir1      1.0000 0.50000  0.62494  0.00000  Biso   1.000  Ir
  Ir2      1.0000 0.50000  0.37506  0.00000  Biso   1.000  Ir
  Ir3      1.0000 0.00000  0.12494  0.00000  Biso   1.000  Ir
  Ir4      1.0000 0.00000  0.87506  0.00000  Biso   1.000  Ir
  O1       1.0000 0.35587  0.81363  0.88217  Biso   1.000  O
  O2       1.0000 0.64413  0.81363  0.11783  Biso   1.000  O
  O3       1.0000 0.64413  0.18637  0.11783  Biso   1.000  O
  O4       1.0000 0.35587  0.18637  0.88217  Biso   1.000  O
  O5       1.0000 0.90853  0.00000  0.72733  Biso   1.000  O
  O6       1.0000 0.09147  0.00000  0.27267  Biso   1.000  O
  O7       1.0000 0.85587  0.31363  0.88217  Biso   1.000  O
  O8       1.0000 0.14413  0.31363  0.11783  Biso   1.000  O
  O9       1.0000 0.14413  0.68637  0.11783  Biso   1.000  O
  O10      1.0000 0.85587  0.68637  0.88217  Biso   1.000  O
  O11      1.0000 0.40853  0.50000  0.72733  Biso   1.000  O
  O12      1.0000 0.59147  0.50000  0.27267  Biso   1.000  O
