data_image0
_cell_length_a       6.20136
_cell_length_b       6.20136
_cell_length_c       24.3653
_cell_angle_alpha    90
_cell_angle_beta     90
_cell_angle_gamma    120

_symmetry_space_group_name_H-M    "P 1"
_symmetry_int_tables_number       1

loop_
  _symmetry_equiv_pos_as_xyz
  'x, y, z'

loop_
  _atom_site_label
  _atom_site_occupancy
  _atom_site_fract_x
  _atom_site_fract_y
  _atom_site_fract_z
  _atom_site_thermal_displace_type
  _atom_site_B_iso_or_equiv
  _atom_site_type_symbol
  Ir1      1.0000 0.00000  0.00000  0.00000  Biso   1.000  Ir
  Ir2      1.0000 0.66667  0.33333  0.19448  Biso   1.000  Ir
  Ir3      1.0000 0.00000  0.00000  0.13885  Biso   1.000  Ir
  Ir4      1.0000 0.66667  0.33333  0.33333  Biso   1.000  Ir
  Ir5      1.0000 0.33333  0.66667  0.52781  Biso   1.000  Ir
  Ir6      1.0000 0.66667  0.33333  0.47219  Biso   1.000  Ir
  Ir7      1.0000 0.33333  0.66667  0.66667  Biso   1.000  Ir
  Ir8      1.0000 0.00000  0.00000  0.86115  Biso   1.000  Ir
  Ir9      1.0000 0.33333  0.66667  0.80552  Biso   1.000  Ir
  O1       1.0000 0.00000  0.00000  0.33285  Biso   1.000  O
  O2       1.0000 0.66667  0.33333  0.00049  Biso   1.000  O
  O3       1.0000 0.16637  0.83363  0.25145  Biso   1.000  O
  O4       1.0000 0.16637  0.33275  0.25145  Biso   1.000  O
  O5       1.0000 0.66725  0.83363  0.25145  Biso   1.000  O
  O6       1.0000 0.50029  0.49971  0.08188  Biso   1.000  O
  O7       1.0000 0.99941  0.49971  0.08188  Biso   1.000  O
  O8       1.0000 0.50029  0.00059  0.08188  Biso   1.000  O
  O9       1.0000 0.33333  0.66667  0.16667  Biso   1.000  O
  O10      1.0000 0.66667  0.33333  0.66618  Biso   1.000  O
  O11      1.0000 0.33333  0.66667  0.33382  Biso   1.000  O
  O12      1.0000 0.83304  0.16696  0.58478  Biso   1.000  O
  O13      1.0000 0.83304  0.66608  0.58478  Biso   1.000  O
  O14      1.0000 0.33392  0.16696  0.58478  Biso   1.000  O
  O15      1.0000 0.16696  0.83304  0.41522  Biso   1.000  O
  O16      1.0000 0.66608  0.83304  0.41522  Biso   1.000  O
  O17      1.0000 0.16696  0.33392  0.41522  Biso   1.000  O
  O18      1.0000 1.00000  0.00000  0.50000  Biso   1.000  O
  O19      1.0000 0.33333  0.66667  0.99951  Biso   1.000  O
  O20      1.0000 0.00000  0.00000  0.66715  Biso   1.000  O
  O21      1.0000 0.49971  0.50029  0.91812  Biso   1.000  O
  O22      1.0000 0.49971  0.99942  0.91812  Biso   1.000  O
  O23      1.0000 0.00059  0.50029  0.91812  Biso   1.000  O
  O24      1.0000 0.83363  0.16637  0.74855  Biso   1.000  O
  O25      1.0000 0.33275  0.16637  0.74855  Biso   1.000  O
  O26      1.0000 0.83363  0.66725  0.74855  Biso   1.000  O
  O27      1.0000 0.66667  0.33333  0.83333  Biso   1.000  O
