data_image0
_cell_length_a       6.61491
_cell_length_b       6.61491
_cell_length_c       17.571
_cell_angle_alpha    90
_cell_angle_beta     90
_cell_angle_gamma    120

_symmetry_space_group_name_H-M    "P 1"
_symmetry_int_tables_number       1

loop_
  _symmetry_equiv_pos_as_xyz
  'x, y, z'

loop_
  _atom_site_label
  _atom_site_occupancy
  _atom_site_fract_x
  _atom_site_fract_y
  _atom_site_fract_z
  _atom_site_thermal_displace_type
  _atom_site_B_iso_or_equiv
  _atom_site_type_symbol
  Ir1      1.0000 0.00000  0.00000  0.70867  Biso   1.000  Ir
  Ir2      1.0000 0.00000  0.00000  0.29133  Biso   1.000  Ir
  Ir3      1.0000 0.00000  0.00000  0.50000  Biso   1.000  Ir
  Ir4      1.0000 0.66667  0.33333  0.20863  Biso   1.000  Ir
  Ir5      1.0000 0.66667  0.33333  0.79137  Biso   1.000  Ir
  Ir6      1.0000 0.66667  0.33333  0.00000  Biso   1.000  Ir
  O1       1.0000 0.33333  0.66667  0.74999  Biso   1.000  O
  O2       1.0000 0.33333  0.66667  0.25001  Biso   1.000  O
  O3       1.0000 0.50030  0.49970  0.62272  Biso   1.000  O
  O4       1.0000 0.50030  0.00060  0.62272  Biso   1.000  O
  O5       1.0000 0.99940  0.49970  0.62272  Biso   1.000  O
  O6       1.0000 0.50030  0.49970  0.37728  Biso   1.000  O
  O7       1.0000 0.50030  0.00060  0.37728  Biso   1.000  O
  O8       1.0000 0.99940  0.49970  0.37728  Biso   1.000  O
  O9       1.0000 0.66667  0.33333  0.50000  Biso   1.000  O
  O10      1.0000 0.33333  0.66667  0.50000  Biso   1.000  O
  O11      1.0000 0.16637  0.83363  0.12272  Biso   1.000  O
  O12      1.0000 0.16637  0.33275  0.12272  Biso   1.000  O
  O13      1.0000 0.66725  0.83363  0.12272  Biso   1.000  O
  O14      1.0000 0.16637  0.83363  0.87728  Biso   1.000  O
  O15      1.0000 0.16637  0.33275  0.87728  Biso   1.000  O
  O16      1.0000 0.66725  0.83363  0.87728  Biso   1.000  O
  O17      1.0000 0.33333  0.66667  0.00000  Biso   1.000  O
  O18      1.0000 0.00000  0.00000  0.00000  Biso   1.000  O
