data_image0
_cell_length_a       8.40981
_cell_length_b       4.78652
_cell_length_c       13.2488
_cell_angle_alpha    90
_cell_angle_beta     92.0301
_cell_angle_gamma    90

_symmetry_space_group_name_H-M    "P 1"
_symmetry_int_tables_number       1

loop_
  _symmetry_equiv_pos_as_xyz
  'x, y, z'

loop_
  _atom_site_label
  _atom_site_occupancy
  _atom_site_fract_x
  _atom_site_fract_y
  _atom_site_fract_z
  _atom_site_thermal_displace_type
  _atom_site_B_iso_or_equiv
  _atom_site_type_symbol
  O1       1.0000 0.34246  0.32325  0.58216  Biso   1.000  O
  O2       1.0000 0.15754  0.82325  0.91784  Biso   1.000  O
  O3       1.0000 0.15754  0.17675  0.41784  Biso   1.000  O
  O4       1.0000 0.34246  0.67675  0.08216  Biso   1.000  O
  O5       1.0000 0.16633  0.84930  0.58370  Biso   1.000  O
  O6       1.0000 0.33367  0.34930  0.91630  Biso   1.000  O
  O7       1.0000 0.33367  0.65070  0.41630  Biso   1.000  O
  O8       1.0000 0.16633  0.15070  0.08370  Biso   1.000  O
  O9       1.0000 0.48974  0.82308  0.58410  Biso   1.000  O
  O10      1.0000 0.01026  0.32308  0.91590  Biso   1.000  O
  O11      1.0000 0.01026  0.67692  0.41590  Biso   1.000  O
  O12      1.0000 0.48974  0.17692  0.08410  Biso   1.000  O
  O13      1.0000 0.17620  0.17952  0.74876  Biso   1.000  O
  O14      1.0000 0.32380  0.67952  0.75124  Biso   1.000  O
  O15      1.0000 0.32380  0.32048  0.25124  Biso   1.000  O
  O16      1.0000 0.17620  0.82048  0.24876  Biso   1.000  O
  O17      1.0000 0.00000  0.34698  0.25000  Biso   1.000  O
  O18      1.0000 0.00000  0.65302  0.75000  Biso   1.000  O
  O19      1.0000 0.84245  0.82325  0.58216  Biso   1.000  O
  O20      1.0000 0.65755  0.32325  0.91784  Biso   1.000  O
  O21      1.0000 0.65755  0.67675  0.41784  Biso   1.000  O
  O22      1.0000 0.84245  0.17675  0.08216  Biso   1.000  O
  O23      1.0000 0.66633  0.34930  0.58370  Biso   1.000  O
  O24      1.0000 0.83367  0.84930  0.91630  Biso   1.000  O
  O25      1.0000 0.83367  0.15070  0.41630  Biso   1.000  O
  O26      1.0000 0.66633  0.65070  0.08370  Biso   1.000  O
  O27      1.0000 0.98974  0.32308  0.58410  Biso   1.000  O
  O28      1.0000 0.51026  0.82308  0.91590  Biso   1.000  O
  O29      1.0000 0.51026  0.17692  0.41590  Biso   1.000  O
  O30      1.0000 0.98974  0.67692  0.08410  Biso   1.000  O
  O31      1.0000 0.67620  0.67952  0.74876  Biso   1.000  O
  O32      1.0000 0.82380  0.17952  0.75124  Biso   1.000  O
  O33      1.0000 0.82380  0.82048  0.25124  Biso   1.000  O
  O34      1.0000 0.67620  0.32048  0.24876  Biso   1.000  O
  O35      1.0000 0.50000  0.84698  0.25000  Biso   1.000  O
  O36      1.0000 0.50000  0.15302  0.75000  Biso   1.000  O
  Ir1      1.0000 0.00000  0.00000  0.00000  Biso   1.000  Ir
  Ir2      1.0000 0.00000  0.00000  0.50000  Biso   1.000  Ir
  Ir3      1.0000 0.33333  0.00128  0.66666  Biso   1.000  Ir
  Ir4      1.0000 0.16667  0.50128  0.83334  Biso   1.000  Ir
  Ir5      1.0000 0.16667  0.49872  0.33334  Biso   1.000  Ir
  Ir6      1.0000 0.33333  0.99872  0.16666  Biso   1.000  Ir
  Ir7      1.0000 0.50000  0.50000  0.00000  Biso   1.000  Ir
  Ir8      1.0000 0.50000  0.50000  0.50000  Biso   1.000  Ir
  Ir9      1.0000 0.83333  0.50128  0.66666  Biso   1.000  Ir
  Ir10     1.0000 0.66667  0.00128  0.83334  Biso   1.000  Ir
  Ir11     1.0000 0.66667  0.99872  0.33334  Biso   1.000  Ir
  Ir12     1.0000 0.83333  0.49872  0.16666  Biso   1.000  Ir
