data_image0
_cell_length_a       12.8045
_cell_length_b       12.8045
_cell_length_c       20.3467
_cell_angle_alpha    90
_cell_angle_beta     90
_cell_angle_gamma    120

_symmetry_space_group_name_H-M    "P 1"
_symmetry_int_tables_number       1

loop_
  _symmetry_equiv_pos_as_xyz
  'x, y, z'

loop_
  _atom_site_label
  _atom_site_occupancy
  _atom_site_fract_x
  _atom_site_fract_y
  _atom_site_fract_z
  _atom_site_thermal_displace_type
  _atom_site_B_iso_or_equiv
  _atom_site_type_symbol
  O1       1.0000 0.12246  0.56123  0.55570  Biso   1.000  O
  O2       1.0000 0.43877  0.56123  0.55570  Biso   1.000  O
  O3       1.0000 0.43877  0.87754  0.55570  Biso   1.000  O
  O4       1.0000 0.54421  0.77210  0.77764  Biso   1.000  O
  O5       1.0000 0.22790  0.45580  0.77764  Biso   1.000  O
  O6       1.0000 0.22790  0.77210  0.77764  Biso   1.000  O
  O7       1.0000 0.68773  0.84386  0.22344  Biso   1.000  O
  O8       1.0000 0.15614  0.84386  0.22344  Biso   1.000  O
  O9       1.0000 0.15614  0.31227  0.22344  Biso   1.000  O
  O10      1.0000 0.97894  0.48947  0.10989  Biso   1.000  O
  O11      1.0000 0.51053  0.02106  0.10989  Biso   1.000  O
  O12      1.0000 0.51053  0.48947  0.10989  Biso   1.000  O
  O13      1.0000 0.12664  0.56332  0.33245  Biso   1.000  O
  O14      1.0000 0.43668  0.56332  0.33245  Biso   1.000  O
  O15      1.0000 0.43668  0.87336  0.33245  Biso   1.000  O
  O16      1.0000 0.54002  0.77001  0.00088  Biso   1.000  O
  O17      1.0000 0.22999  0.45998  0.00088  Biso   1.000  O
  O18      1.0000 0.22999  0.77001  0.00088  Biso   1.000  O
  O19      1.0000 0.78913  0.89456  0.88903  Biso   1.000  O
  O20      1.0000 0.10544  0.89456  0.88903  Biso   1.000  O
  O21      1.0000 0.10544  0.21087  0.88903  Biso   1.000  O
  O22      1.0000 0.21087  0.10544  0.11097  Biso   1.000  O
  O23      1.0000 0.89456  0.78913  0.11097  Biso   1.000  O
  O24      1.0000 0.89456  0.10544  0.11097  Biso   1.000  O
  O25      1.0000 0.35439  0.17720  0.55677  Biso   1.000  O
  O26      1.0000 0.82280  0.17720  0.55677  Biso   1.000  O
  O27      1.0000 0.82280  0.64561  0.55677  Biso   1.000  O
  O28      1.0000 0.64561  0.82280  0.44323  Biso   1.000  O
  O29      1.0000 0.17720  0.35439  0.44323  Biso   1.000  O
  O30      1.0000 0.17720  0.82280  0.44323  Biso   1.000  O
  O31      1.0000 0.79331  0.89665  0.66578  Biso   1.000  O
  O32      1.0000 0.10335  0.89665  0.66578  Biso   1.000  O
  O33      1.0000 0.10335  0.20669  0.66578  Biso   1.000  O
  O34      1.0000 0.20669  0.10335  0.33422  Biso   1.000  O
  O35      1.0000 0.89665  0.79331  0.33422  Biso   1.000  O
  O36      1.0000 0.89665  0.10335  0.33422  Biso   1.000  O
  O37      1.0000 0.45580  0.22790  0.22236  Biso   1.000  O
  O38      1.0000 0.77210  0.22790  0.22236  Biso   1.000  O
  O39      1.0000 0.77210  0.54421  0.22236  Biso   1.000  O
  O40      1.0000 0.87754  0.43877  0.44430  Biso   1.000  O
  O41      1.0000 0.56123  0.12246  0.44430  Biso   1.000  O
  O42      1.0000 0.56123  0.43877  0.44430  Biso   1.000  O
  O43      1.0000 0.02106  0.51053  0.89011  Biso   1.000  O
  O44      1.0000 0.48947  0.51053  0.89011  Biso   1.000  O
  O45      1.0000 0.48947  0.97894  0.89011  Biso   1.000  O
  O46      1.0000 0.31227  0.15614  0.77656  Biso   1.000  O
  O47      1.0000 0.84386  0.68773  0.77656  Biso   1.000  O
  O48      1.0000 0.84386  0.15614  0.77656  Biso   1.000  O
  O49      1.0000 0.45998  0.22999  0.99912  Biso   1.000  O
  O50      1.0000 0.77001  0.22999  0.99912  Biso   1.000  O
  O51      1.0000 0.77001  0.54002  0.99912  Biso   1.000  O
  O52      1.0000 0.87336  0.43668  0.66755  Biso   1.000  O
  O53      1.0000 0.56332  0.12664  0.66755  Biso   1.000  O
  O54      1.0000 0.56332  0.43668  0.66755  Biso   1.000  O
  Ir1      1.0000 0.17522  0.58761  0.44099  Biso   1.000  Ir
  Ir2      1.0000 0.41239  0.58761  0.44099  Biso   1.000  Ir
  Ir3      1.0000 0.41239  0.82478  0.44099  Biso   1.000  Ir
  Ir4      1.0000 0.49145  0.74572  0.89234  Biso   1.000  Ir
  Ir5      1.0000 0.25428  0.50855  0.89234  Biso   1.000  Ir
  Ir6      1.0000 0.25428  0.74572  0.89234  Biso   1.000  Ir
  Ir7      1.0000 0.84188  0.92094  0.77432  Biso   1.000  Ir
  Ir8      1.0000 0.07906  0.92094  0.77432  Biso   1.000  Ir
  Ir9      1.0000 0.07906  0.15812  0.77432  Biso   1.000  Ir
  Ir10     1.0000 0.15812  0.07906  0.22568  Biso   1.000  Ir
  Ir11     1.0000 0.92094  0.84188  0.22568  Biso   1.000  Ir
  Ir12     1.0000 0.92094  0.07906  0.22568  Biso   1.000  Ir
  Ir13     1.0000 0.50855  0.25428  0.10766  Biso   1.000  Ir
  Ir14     1.0000 0.74572  0.25428  0.10766  Biso   1.000  Ir
  Ir15     1.0000 0.74572  0.49145  0.10766  Biso   1.000  Ir
  Ir16     1.0000 0.82478  0.41239  0.55901  Biso   1.000  Ir
  Ir17     1.0000 0.58761  0.17522  0.55901  Biso   1.000  Ir
  Ir18     1.0000 0.58761  0.41239  0.55901  Biso   1.000  Ir
