data_image0
_cell_length_a       10.9179
_cell_length_b       6.30515
_cell_length_c       6.53532
_cell_angle_alpha    90
_cell_angle_beta     90.0082
_cell_angle_gamma    90

_symmetry_space_group_name_H-M    "P 1"
_symmetry_int_tables_number       1

loop_
  _symmetry_equiv_pos_as_xyz
  'x, y, z'

loop_
  _atom_site_label
  _atom_site_occupancy
  _atom_site_fract_x
  _atom_site_fract_y
  _atom_site_fract_z
  _atom_site_thermal_displace_type
  _atom_site_B_iso_or_equiv
  _atom_site_type_symbol
  O1       1.0000 0.49499  0.17073  0.90583  Biso   1.000  O
  O2       1.0000 0.50501  0.17073  0.59417  Biso   1.000  O
  O3       1.0000 0.50501  0.82927  0.09417  Biso   1.000  O
  O4       1.0000 0.49499  0.82927  0.40583  Biso   1.000  O
  O5       1.0000 0.33785  0.67212  0.90583  Biso   1.000  O
  O6       1.0000 0.66215  0.67212  0.59417  Biso   1.000  O
  O7       1.0000 0.66215  0.32788  0.09417  Biso   1.000  O
  O8       1.0000 0.33785  0.32788  0.40583  Biso   1.000  O
  O9       1.0000 0.16712  0.15712  0.90581  Biso   1.000  O
  O10      1.0000 0.83288  0.15712  0.59419  Biso   1.000  O
  O11      1.0000 0.83288  0.84288  0.09419  Biso   1.000  O
  O12      1.0000 0.16712  0.84288  0.40581  Biso   1.000  O
  O13      1.0000 0.66665  0.00003  0.83728  Biso   1.000  O
  O14      1.0000 0.33335  0.00003  0.66272  Biso   1.000  O
  O15      1.0000 0.33335  0.99997  0.16272  Biso   1.000  O
  O16      1.0000 0.66665  0.99997  0.33728  Biso   1.000  O
  O17      1.0000 0.50000  0.50001  0.25000  Biso   1.000  O
  O18      1.0000 0.50000  0.49999  0.75000  Biso   1.000  O
  O19      1.0000 0.99499  0.67073  0.90583  Biso   1.000  O
  O20      1.0000 0.00501  0.67073  0.59417  Biso   1.000  O
  O21      1.0000 0.00501  0.32927  0.09417  Biso   1.000  O
  O22      1.0000 0.99499  0.32927  0.40583  Biso   1.000  O
  O23      1.0000 0.83785  0.17212  0.90583  Biso   1.000  O
  O24      1.0000 0.16215  0.17212  0.59417  Biso   1.000  O
  O25      1.0000 0.16215  0.82788  0.09417  Biso   1.000  O
  O26      1.0000 0.83785  0.82788  0.40583  Biso   1.000  O
  O27      1.0000 0.66712  0.65712  0.90581  Biso   1.000  O
  O28      1.0000 0.33288  0.65712  0.59419  Biso   1.000  O
  O29      1.0000 0.33288  0.34288  0.09419  Biso   1.000  O
  O30      1.0000 0.66712  0.34288  0.40581  Biso   1.000  O
  O31      1.0000 0.16665  0.50003  0.83728  Biso   1.000  O
  O32      1.0000 0.83335  0.50003  0.66272  Biso   1.000  O
  O33      1.0000 0.83335  0.49997  0.16272  Biso   1.000  O
  O34      1.0000 0.16665  0.49997  0.33728  Biso   1.000  O
  O35      1.0000 0.00000  0.00001  0.25000  Biso   1.000  O
  O36      1.0000 0.00000  0.99999  0.75000  Biso   1.000  O
  Ir1      1.0000 0.66842  0.33153  0.75002  Biso   1.000  Ir
  Ir2      1.0000 0.33158  0.33153  0.74998  Biso   1.000  Ir
  Ir3      1.0000 0.33158  0.66847  0.24998  Biso   1.000  Ir
  Ir4      1.0000 0.66842  0.66847  0.25002  Biso   1.000  Ir
  Ir5      1.0000 0.50000  0.16329  0.25000  Biso   1.000  Ir
  Ir6      1.0000 0.50000  0.83671  0.75000  Biso   1.000  Ir
  Ir7      1.0000 0.16842  0.83153  0.75002  Biso   1.000  Ir
  Ir8      1.0000 0.83158  0.83153  0.74998  Biso   1.000  Ir
  Ir9      1.0000 0.83158  0.16847  0.24998  Biso   1.000  Ir
  Ir10     1.0000 0.16842  0.16847  0.25002  Biso   1.000  Ir
  Ir11     1.0000 0.00000  0.66329  0.25000  Biso   1.000  Ir
  Ir12     1.0000 0.00000  0.33671  0.75000  Biso   1.000  Ir
