data_image0
_cell_length_a       18.2101
_cell_length_b       3.47054
_cell_length_c       5.77571
_cell_angle_alpha    90
_cell_angle_beta     90
_cell_angle_gamma    90

_symmetry_space_group_name_H-M    "P 1"
_symmetry_int_tables_number       1

loop_
  _symmetry_equiv_pos_as_xyz
  'x, y, z'

loop_
  _atom_site_label
  _atom_site_occupancy
  _atom_site_fract_x
  _atom_site_fract_y
  _atom_site_fract_z
  _atom_site_thermal_displace_type
  _atom_site_B_iso_or_equiv
  _atom_site_type_symbol
  O1       1.0000 0.52286  0.25000  0.52847  Biso   1.000  O
  O2       1.0000 0.97714  0.75000  0.02847  Biso   1.000  O
  O3       1.0000 0.47714  0.75000  0.47153  Biso   1.000  O
  O4       1.0000 0.02286  0.25000  0.97153  Biso   1.000  O
  O5       1.0000 0.19598  0.25000  0.12352  Biso   1.000  O
  O6       1.0000 0.30402  0.75000  0.62352  Biso   1.000  O
  O7       1.0000 0.80402  0.75000  0.87648  Biso   1.000  O
  O8       1.0000 0.69598  0.25000  0.37648  Biso   1.000  O
  O9       1.0000 0.62707  0.25000  0.63417  Biso   1.000  O
  O10      1.0000 0.87293  0.75000  0.13417  Biso   1.000  O
  O11      1.0000 0.37293  0.75000  0.36583  Biso   1.000  O
  O12      1.0000 0.12707  0.25000  0.86583  Biso   1.000  O
  Ir1      1.0000 0.83725  0.25000  0.50315  Biso   1.000  Ir
  Ir2      1.0000 0.66275  0.75000  0.00315  Biso   1.000  Ir
  Ir3      1.0000 0.16275  0.75000  0.49685  Biso   1.000  Ir
  Ir4      1.0000 0.33725  0.25000  0.99685  Biso   1.000  Ir
