data_image0
_cell_length_a       13.8241
_cell_length_b       9.18486
_cell_length_c       6.83319
_cell_angle_alpha    90
_cell_angle_beta     90
_cell_angle_gamma    90

_symmetry_space_group_name_H-M    "P 1"
_symmetry_int_tables_number       1

loop_
  _symmetry_equiv_pos_as_xyz
  'x, y, z'

loop_
  _atom_site_label
  _atom_site_occupancy
  _atom_site_fract_x
  _atom_site_fract_y
  _atom_site_fract_z
  _atom_site_thermal_displace_type
  _atom_site_B_iso_or_equiv
  _atom_site_type_symbol
  O1       1.0000 0.13744  0.13917  0.74739  Biso   1.000  O
  O2       1.0000 0.86256  0.36083  0.74739  Biso   1.000  O
  O3       1.0000 0.86256  0.63917  0.25261  Biso   1.000  O
  O4       1.0000 0.13744  0.86083  0.25261  Biso   1.000  O
  O5       1.0000 0.86256  0.86083  0.25261  Biso   1.000  O
  O6       1.0000 0.13744  0.63917  0.25261  Biso   1.000  O
  O7       1.0000 0.13744  0.36083  0.74739  Biso   1.000  O
  O8       1.0000 0.86256  0.13917  0.74739  Biso   1.000  O
  O9       1.0000 0.18082  0.25000  0.52142  Biso   1.000  O
  O10      1.0000 0.81918  0.25000  0.52142  Biso   1.000  O
  O11      1.0000 0.81918  0.75000  0.47858  Biso   1.000  O
  O12      1.0000 0.18082  0.75000  0.47858  Biso   1.000  O
  O13      1.0000 0.17571  0.25000  0.97377  Biso   1.000  O
  O14      1.0000 0.82429  0.25000  0.97377  Biso   1.000  O
  O15      1.0000 0.82429  0.75000  0.02623  Biso   1.000  O
  O16      1.0000 0.17571  0.75000  0.02623  Biso   1.000  O
  O17      1.0000 0.25158  0.42521  0.59533  Biso   1.000  O
  O18      1.0000 0.24842  0.57479  0.09533  Biso   1.000  O
  O19      1.0000 0.24842  0.42521  0.90467  Biso   1.000  O
  O20      1.0000 0.25158  0.57479  0.40467  Biso   1.000  O
  O21      1.0000 0.74842  0.57479  0.40467  Biso   1.000  O
  O22      1.0000 0.75158  0.42521  0.90467  Biso   1.000  O
  O23      1.0000 0.75158  0.57479  0.09533  Biso   1.000  O
  O24      1.0000 0.74842  0.42521  0.59533  Biso   1.000  O
  O25      1.0000 0.63744  0.63917  0.24739  Biso   1.000  O
  O26      1.0000 0.36256  0.86083  0.24739  Biso   1.000  O
  O27      1.0000 0.36256  0.13917  0.75261  Biso   1.000  O
  O28      1.0000 0.63744  0.36083  0.75261  Biso   1.000  O
  O29      1.0000 0.36256  0.36083  0.75261  Biso   1.000  O
  O30      1.0000 0.63744  0.13917  0.75261  Biso   1.000  O
  O31      1.0000 0.63744  0.86083  0.24739  Biso   1.000  O
  O32      1.0000 0.36256  0.63917  0.24739  Biso   1.000  O
  O33      1.0000 0.68082  0.75000  0.02142  Biso   1.000  O
  O34      1.0000 0.31918  0.75000  0.02142  Biso   1.000  O
  O35      1.0000 0.31918  0.25000  0.97858  Biso   1.000  O
  O36      1.0000 0.68082  0.25000  0.97858  Biso   1.000  O
  O37      1.0000 0.67571  0.75000  0.47377  Biso   1.000  O
  O38      1.0000 0.32429  0.75000  0.47377  Biso   1.000  O
  O39      1.0000 0.32429  0.25000  0.52623  Biso   1.000  O
  O40      1.0000 0.67571  0.25000  0.52623  Biso   1.000  O
  O41      1.0000 0.75158  0.92521  0.09533  Biso   1.000  O
  O42      1.0000 0.74842  0.07479  0.59533  Biso   1.000  O
  O43      1.0000 0.74842  0.92521  0.40467  Biso   1.000  O
  O44      1.0000 0.75158  0.07479  0.90467  Biso   1.000  O
  O45      1.0000 0.24842  0.07479  0.90467  Biso   1.000  O
  O46      1.0000 0.25158  0.92521  0.40467  Biso   1.000  O
  O47      1.0000 0.25158  0.07479  0.59533  Biso   1.000  O
  O48      1.0000 0.24842  0.92521  0.09533  Biso   1.000  O
  Ir1      1.0000 0.00000  0.01893  0.68635  Biso   1.000  Ir
  Ir2      1.0000 0.00000  0.48107  0.68635  Biso   1.000  Ir
  Ir3      1.0000 0.00000  0.51893  0.31365  Biso   1.000  Ir
  Ir4      1.0000 0.00000  0.98107  0.31365  Biso   1.000  Ir
  Ir5      1.0000 0.09553  0.25000  0.24777  Biso   1.000  Ir
  Ir6      1.0000 0.90447  0.25000  0.24777  Biso   1.000  Ir
  Ir7      1.0000 0.90447  0.75000  0.75223  Biso   1.000  Ir
  Ir8      1.0000 0.09553  0.75000  0.75223  Biso   1.000  Ir
  Ir9      1.0000 0.50000  0.51893  0.18635  Biso   1.000  Ir
  Ir10     1.0000 0.50000  0.98107  0.18635  Biso   1.000  Ir
  Ir11     1.0000 0.50000  0.01893  0.81365  Biso   1.000  Ir
  Ir12     1.0000 0.50000  0.48107  0.81365  Biso   1.000  Ir
  Ir13     1.0000 0.59553  0.75000  0.74777  Biso   1.000  Ir
  Ir14     1.0000 0.40447  0.75000  0.74777  Biso   1.000  Ir
  Ir15     1.0000 0.40447  0.25000  0.25223  Biso   1.000  Ir
  Ir16     1.0000 0.59553  0.25000  0.25223  Biso   1.000  Ir
