data_image0
_cell_length_a       6.38944
_cell_length_b       11.0664
_cell_length_c       25.1616
_cell_angle_alpha    90
_cell_angle_beta     90.986
_cell_angle_gamma    90

_symmetry_space_group_name_H-M    "P 1"
_symmetry_int_tables_number       1

loop_
  _symmetry_equiv_pos_as_xyz
  'x, y, z'

loop_
  _atom_site_label
  _atom_site_occupancy
  _atom_site_fract_x
  _atom_site_fract_y
  _atom_site_fract_z
  _atom_site_thermal_displace_type
  _atom_site_B_iso_or_equiv
  _atom_site_type_symbol
  O1       1.0000 0.67882  0.15452  0.19516  Biso   1.000  O
  O2       1.0000 0.32118  0.15452  0.30484  Biso   1.000  O
  O3       1.0000 0.32118  0.84548  0.80484  Biso   1.000  O
  O4       1.0000 0.67882  0.84548  0.69516  Biso   1.000  O
  O5       1.0000 0.67946  0.18005  0.44499  Biso   1.000  O
  O6       1.0000 0.32054  0.18005  0.05501  Biso   1.000  O
  O7       1.0000 0.32054  0.81995  0.55501  Biso   1.000  O
  O8       1.0000 0.67946  0.81995  0.94499  Biso   1.000  O
  O9       1.0000 0.63925  0.16540  0.69492  Biso   1.000  O
  O10      1.0000 0.36075  0.16540  0.80508  Biso   1.000  O
  O11      1.0000 0.36075  0.83460  0.30508  Biso   1.000  O
  O12      1.0000 0.63925  0.83460  0.19492  Biso   1.000  O
  O13      1.0000 0.67919  0.17953  0.94521  Biso   1.000  O
  O14      1.0000 0.32081  0.17953  0.55479  Biso   1.000  O
  O15      1.0000 0.32081  0.82047  0.05479  Biso   1.000  O
  O16      1.0000 0.67919  0.82047  0.44521  Biso   1.000  O
  O17      1.0000 0.82008  0.01421  0.30493  Biso   1.000  O
  O18      1.0000 0.17992  0.01421  0.19507  Biso   1.000  O
  O19      1.0000 0.17992  0.98579  0.69507  Biso   1.000  O
  O20      1.0000 0.82008  0.98579  0.80493  Biso   1.000  O
  O21      1.0000 0.86060  0.99993  0.05508  Biso   1.000  O
  O22      1.0000 0.13940  0.99993  0.44492  Biso   1.000  O
  O23      1.0000 0.13940  0.00007  0.94492  Biso   1.000  O
  O24      1.0000 0.86060  0.00007  0.55508  Biso   1.000  O
  O25      1.0000 0.17882  0.65452  0.19516  Biso   1.000  O
  O26      1.0000 0.82118  0.65452  0.30484  Biso   1.000  O
  O27      1.0000 0.82118  0.34548  0.80484  Biso   1.000  O
  O28      1.0000 0.17882  0.34548  0.69516  Biso   1.000  O
  O29      1.0000 0.17946  0.68005  0.44499  Biso   1.000  O
  O30      1.0000 0.82054  0.68005  0.05501  Biso   1.000  O
  O31      1.0000 0.82054  0.31995  0.55501  Biso   1.000  O
  O32      1.0000 0.17946  0.31995  0.94499  Biso   1.000  O
  O33      1.0000 0.13925  0.66540  0.69492  Biso   1.000  O
  O34      1.0000 0.86075  0.66540  0.80508  Biso   1.000  O
  O35      1.0000 0.86075  0.33460  0.30508  Biso   1.000  O
  O36      1.0000 0.13925  0.33460  0.19492  Biso   1.000  O
  O37      1.0000 0.17919  0.67953  0.94521  Biso   1.000  O
  O38      1.0000 0.82081  0.67953  0.55479  Biso   1.000  O
  O39      1.0000 0.82081  0.32047  0.05479  Biso   1.000  O
  O40      1.0000 0.17919  0.32047  0.44521  Biso   1.000  O
  O41      1.0000 0.32008  0.51421  0.30493  Biso   1.000  O
  O42      1.0000 0.67992  0.51421  0.19507  Biso   1.000  O
  O43      1.0000 0.67992  0.48579  0.69507  Biso   1.000  O
  O44      1.0000 0.32008  0.48579  0.80493  Biso   1.000  O
  O45      1.0000 0.36060  0.49993  0.05508  Biso   1.000  O
  O46      1.0000 0.63940  0.49993  0.44492  Biso   1.000  O
  O47      1.0000 0.63940  0.50007  0.94492  Biso   1.000  O
  O48      1.0000 0.36060  0.50007  0.55508  Biso   1.000  O
  Ir1      1.0000 0.49937  0.33354  0.49942  Biso   1.000  Ir
  Ir2      1.0000 0.50063  0.33354  0.00058  Biso   1.000  Ir
  Ir3      1.0000 0.50063  0.66646  0.50058  Biso   1.000  Ir
  Ir4      1.0000 0.49937  0.66646  0.99942  Biso   1.000  Ir
  Ir5      1.0000 0.50000  0.66722  0.25000  Biso   1.000  Ir
  Ir6      1.0000 0.50000  0.33278  0.75000  Biso   1.000  Ir
  Ir7      1.0000 0.50000  0.00071  0.25000  Biso   1.000  Ir
  Ir8      1.0000 0.50000  0.99929  0.75000  Biso   1.000  Ir
  Ir9      1.0000 0.99937  0.83354  0.49942  Biso   1.000  Ir
  Ir10     1.0000 0.00063  0.83354  0.00058  Biso   1.000  Ir
  Ir11     1.0000 0.00063  0.16646  0.50058  Biso   1.000  Ir
  Ir12     1.0000 0.99937  0.16646  0.99942  Biso   1.000  Ir
  Ir13     1.0000 0.00000  0.16722  0.25000  Biso   1.000  Ir
  Ir14     1.0000 0.00000  0.83278  0.75000  Biso   1.000  Ir
  Ir15     1.0000 0.00000  0.50071  0.25000  Biso   1.000  Ir
  Ir16     1.0000 0.00000  0.49929  0.75000  Biso   1.000  Ir
