data_image0
_cell_length_a       5.67737
_cell_length_b       6.03843
_cell_length_c       18.035
_cell_angle_alpha    89.9692
_cell_angle_beta     89.9877
_cell_angle_gamma    67.0882

_symmetry_space_group_name_H-M    "P 1"
_symmetry_int_tables_number       1

loop_
  _symmetry_equiv_pos_as_xyz
  'x, y, z'

loop_
  _atom_site_label
  _atom_site_occupancy
  _atom_site_fract_x
  _atom_site_fract_y
  _atom_site_fract_z
  _atom_site_thermal_displace_type
  _atom_site_B_iso_or_equiv
  _atom_site_type_symbol
  O1       1.0000 0.33314  0.98732  0.91177  Biso   1.000  O
  O2       1.0000 0.67956  0.33315  0.91175  Biso   1.000  O
  O3       1.0000 0.98730  0.67957  0.91175  Biso   1.000  O
  O4       1.0000 0.68077  0.98617  0.75686  Biso   1.000  O
  O5       1.0000 0.98617  0.33304  0.75685  Biso   1.000  O
  O6       1.0000 0.33305  0.68076  0.75683  Biso   1.000  O
  O7       1.0000 0.00020  0.65291  0.57772  Biso   1.000  O
  O8       1.0000 0.65291  0.34690  0.57771  Biso   1.000  O
  O9       1.0000 0.34690  0.00021  0.57771  Biso   1.000  O
  O10      1.0000 0.65290  0.00021  0.42232  Biso   1.000  O
  O11      1.0000 0.34688  0.65292  0.42231  Biso   1.000  O
  O12      1.0000 0.00019  0.34689  0.42230  Biso   1.000  O
  O13      1.0000 0.68087  0.33278  0.24315  Biso   1.000  O
  O14      1.0000 0.33278  0.98631  0.24313  Biso   1.000  O
  O15      1.0000 0.98632  0.68089  0.24313  Biso   1.000  O
  O16      1.0000 0.67971  0.98743  0.08824  Biso   1.000  O
  O17      1.0000 0.33288  0.67968  0.08824  Biso   1.000  O
  O18      1.0000 0.98747  0.33287  0.08821  Biso   1.000  O
  Ir1      1.0000 0.00000  0.00000  0.83454  Biso   1.000  Ir
  Ir2      1.0000 0.66656  0.66671  0.83443  Biso   1.000  Ir
  Ir3      1.0000 0.33329  0.33338  0.50001  Biso   1.000  Ir
  Ir4      1.0000 0.66670  0.66662  0.50001  Biso   1.000  Ir
  Ir5      1.0000 0.66673  0.66653  0.16556  Biso   1.000  Ir
  Ir6      1.0000 0.00000  0.00011  0.16546  Biso   1.000  Ir
