data_image0
_cell_length_a       3.79424
_cell_length_b       7.58443
_cell_length_c       7.58262
_cell_angle_alpha    90
_cell_angle_beta     90
_cell_angle_gamma    90

_symmetry_space_group_name_H-M    "P 1"
_symmetry_int_tables_number       1

loop_
  _symmetry_equiv_pos_as_xyz
  'x, y, z'

loop_
  _atom_site_label
  _atom_site_occupancy
  _atom_site_fract_x
  _atom_site_fract_y
  _atom_site_fract_z
  _atom_site_thermal_displace_type
  _atom_site_B_iso_or_equiv
  _atom_site_type_symbol
  O1       1.0000 0.00000  0.00000  0.73781  Biso   1.000  O
  O2       1.0000 0.00000  0.26223  0.49999  Biso   1.000  O
  O3       1.0000 0.00000  0.73777  0.49999  Biso   1.000  O
  O4       1.0000 0.00000  0.00000  0.26221  Biso   1.000  O
  O5       1.0000 0.50000  0.75005  0.75001  Biso   1.000  O
  O6       1.0000 0.50000  0.24995  0.75001  Biso   1.000  O
  O7       1.0000 0.00000  0.50000  0.23781  Biso   1.000  O
  O8       1.0000 0.00000  0.76223  0.99999  Biso   1.000  O
  O9       1.0000 0.00000  0.23777  0.99999  Biso   1.000  O
  O10      1.0000 0.00000  0.50000  0.76221  Biso   1.000  O
  O11      1.0000 0.50000  0.25005  0.25000  Biso   1.000  O
  O12      1.0000 0.50000  0.74995  0.25000  Biso   1.000  O
  Ir1      1.0000 0.00000  0.24998  0.24999  Biso   1.000  Ir
  Ir2      1.0000 0.00000  0.75002  0.24999  Biso   1.000  Ir
  Ir3      1.0000 0.00000  0.74998  0.74999  Biso   1.000  Ir
  Ir4      1.0000 0.00000  0.25002  0.74999  Biso   1.000  Ir
