data_image0
_cell_length_a       7.37125
_cell_length_b       7.59648
_cell_length_c       9.89795
_cell_angle_alpha    90
_cell_angle_beta     90
_cell_angle_gamma    90

_symmetry_space_group_name_H-M    "P 1"
_symmetry_int_tables_number       1

loop_
  _symmetry_equiv_pos_as_xyz
  'x, y, z'

loop_
  _atom_site_label
  _atom_site_occupancy
  _atom_site_fract_x
  _atom_site_fract_y
  _atom_site_fract_z
  _atom_site_thermal_displace_type
  _atom_site_B_iso_or_equiv
  _atom_site_type_symbol
  O1       1.0000 0.78931  0.69315  0.62430  Biso   1.000  O
  O2       1.0000 0.71069  0.30685  0.12430  Biso   1.000  O
  O3       1.0000 0.21069  0.19315  0.87570  Biso   1.000  O
  O4       1.0000 0.28931  0.80685  0.37570  Biso   1.000  O
  O5       1.0000 0.03916  0.79670  0.61053  Biso   1.000  O
  O6       1.0000 0.46084  0.20330  0.11053  Biso   1.000  O
  O7       1.0000 0.96084  0.29670  0.88947  Biso   1.000  O
  O8       1.0000 0.53916  0.70330  0.38947  Biso   1.000  O
  O9       1.0000 0.26844  0.93822  0.87162  Biso   1.000  O
  O10      1.0000 0.23155  0.06178  0.37162  Biso   1.000  O
  O11      1.0000 0.73155  0.43822  0.62838  Biso   1.000  O
  O12      1.0000 0.76844  0.56178  0.12838  Biso   1.000  O
  O13      1.0000 0.76624  0.96685  0.00968  Biso   1.000  O
  O14      1.0000 0.73376  0.03315  0.50968  Biso   1.000  O
  O15      1.0000 0.23376  0.46685  0.49032  Biso   1.000  O
  O16      1.0000 0.26624  0.53315  0.99032  Biso   1.000  O
  O17      1.0000 0.23461  0.46326  0.68942  Biso   1.000  O
  O18      1.0000 0.26539  0.53674  0.18942  Biso   1.000  O
  O19      1.0000 0.76539  0.96326  0.81058  Biso   1.000  O
  O20      1.0000 0.73461  0.03674  0.31058  Biso   1.000  O
  O21      1.0000 0.49307  0.62126  0.90536  Biso   1.000  O
  O22      1.0000 0.00693  0.37874  0.40536  Biso   1.000  O
  O23      1.0000 0.50693  0.12126  0.59464  Biso   1.000  O
  O24      1.0000 0.99307  0.87874  0.09465  Biso   1.000  O
  Ir1      1.0000 0.42841  0.77307  0.64748  Biso   1.000  Ir
  Ir2      1.0000 0.07159  0.22693  0.14748  Biso   1.000  Ir
  Ir3      1.0000 0.57159  0.27307  0.85252  Biso   1.000  Ir
  Ir4      1.0000 0.92841  0.72693  0.35252  Biso   1.000  Ir
  Ir5      1.0000 0.46789  0.82579  0.12942  Biso   1.000  Ir
  Ir6      1.0000 0.03211  0.17421  0.62942  Biso   1.000  Ir
  Ir7      1.0000 0.53211  0.32579  0.37058  Biso   1.000  Ir
  Ir8      1.0000 0.96789  0.67421  0.87058  Biso   1.000  Ir
