data_image0
_cell_length_a       2.85672
_cell_length_b       4.61874
_cell_length_c       4.73615
_cell_angle_alpha    90
_cell_angle_beta     90
_cell_angle_gamma    90

_symmetry_space_group_name_H-M    "P 1"
_symmetry_int_tables_number       1

loop_
  _symmetry_equiv_pos_as_xyz
  'x, y, z'

loop_
  _atom_site_label
  _atom_site_occupancy
  _atom_site_fract_x
  _atom_site_fract_y
  _atom_site_fract_z
  _atom_site_thermal_displace_type
  _atom_site_B_iso_or_equiv
  _atom_site_type_symbol
  Ir1      1.0000 0.00000  0.00000  0.64730  Biso   1.000  Ir
  O1       1.0000 0.50000  0.00000  0.02730  Biso   1.000  O
  O2       1.0000 0.50000  0.50000  0.52024  Biso   1.000  O
  O3       1.0000 0.00000  0.50000  0.13849  Biso   1.000  O
