data_image0
_cell_length_a       9.36063
_cell_length_b       10.8528
_cell_length_c       19.1732
_cell_angle_alpha    90
_cell_angle_beta     90
_cell_angle_gamma    90

_symmetry_space_group_name_H-M    "P 1"
_symmetry_int_tables_number       1

loop_
  _symmetry_equiv_pos_as_xyz
  'x, y, z'

loop_
  _atom_site_label
  _atom_site_occupancy
  _atom_site_fract_x
  _atom_site_fract_y
  _atom_site_fract_z
  _atom_site_thermal_displace_type
  _atom_site_B_iso_or_equiv
  _atom_site_type_symbol
  O1       1.0000 0.77575  0.10388  0.07568  Biso   1.000  O
  O2       1.0000 0.72425  0.89612  0.57568  Biso   1.000  O
  O3       1.0000 0.22425  0.60388  0.92432  Biso   1.000  O
  O4       1.0000 0.27575  0.39612  0.42432  Biso   1.000  O
  O5       1.0000 0.22425  0.89612  0.92432  Biso   1.000  O
  O6       1.0000 0.27575  0.10388  0.42432  Biso   1.000  O
  O7       1.0000 0.77575  0.39612  0.07568  Biso   1.000  O
  O8       1.0000 0.72425  0.60388  0.57568  Biso   1.000  O
  O9       1.0000 0.91320  0.25000  0.94963  Biso   1.000  O
  O10      1.0000 0.58680  0.75000  0.44963  Biso   1.000  O
  O11      1.0000 0.08680  0.75000  0.05037  Biso   1.000  O
  O12      1.0000 0.41320  0.25000  0.55037  Biso   1.000  O
  O13      1.0000 0.78219  0.10458  0.40833  Biso   1.000  O
  O14      1.0000 0.71781  0.89542  0.90833  Biso   1.000  O
  O15      1.0000 0.21781  0.60458  0.59167  Biso   1.000  O
  O16      1.0000 0.28219  0.39542  0.09167  Biso   1.000  O
  O17      1.0000 0.21781  0.89542  0.59167  Biso   1.000  O
  O18      1.0000 0.28219  0.10458  0.09167  Biso   1.000  O
  O19      1.0000 0.78219  0.39542  0.40833  Biso   1.000  O
  O20      1.0000 0.71781  0.60458  0.90833  Biso   1.000  O
  O21      1.0000 0.64731  0.25000  0.28107  Biso   1.000  O
  O22      1.0000 0.85269  0.75000  0.78107  Biso   1.000  O
  O23      1.0000 0.35269  0.75000  0.71893  Biso   1.000  O
  O24      1.0000 0.14731  0.25000  0.21893  Biso   1.000  O
  O25      1.0000 0.97908  0.10439  0.74942  Biso   1.000  O
  O26      1.0000 0.52092  0.89561  0.24942  Biso   1.000  O
  O27      1.0000 0.02092  0.60439  0.25058  Biso   1.000  O
  O28      1.0000 0.47908  0.39561  0.75058  Biso   1.000  O
  O29      1.0000 0.02092  0.89561  0.25058  Biso   1.000  O
  O30      1.0000 0.47908  0.10439  0.75058  Biso   1.000  O
  O31      1.0000 0.97908  0.39561  0.74942  Biso   1.000  O
  O32      1.0000 0.52092  0.60439  0.24942  Biso   1.000  O
  O33      1.0000 0.91969  0.25000  0.60913  Biso   1.000  O
  O34      1.0000 0.58031  0.75000  0.10913  Biso   1.000  O
  O35      1.0000 0.08031  0.75000  0.39087  Biso   1.000  O
  O36      1.0000 0.41969  0.25000  0.89087  Biso   1.000  O
  Ir1      1.0000 0.88849  0.25000  0.05097  Biso   1.000  Ir
  Ir2      1.0000 0.61151  0.75000  0.55097  Biso   1.000  Ir
  Ir3      1.0000 0.11151  0.75000  0.94903  Biso   1.000  Ir
  Ir4      1.0000 0.38849  0.25000  0.44903  Biso   1.000  Ir
  Ir5      1.0000 0.80495  0.25000  0.34878  Biso   1.000  Ir
  Ir6      1.0000 0.69505  0.75000  0.84877  Biso   1.000  Ir
  Ir7      1.0000 0.19505  0.75000  0.65123  Biso   1.000  Ir
  Ir8      1.0000 0.30495  0.25000  0.15122  Biso   1.000  Ir
  Ir9      1.0000 0.03458  0.25000  0.69535  Biso   1.000  Ir
  Ir10     1.0000 0.46542  0.75000  0.19535  Biso   1.000  Ir
  Ir11     1.0000 0.96542  0.75000  0.30465  Biso   1.000  Ir
  Ir12     1.0000 0.53458  0.25000  0.80465  Biso   1.000  Ir
