data_image0
_cell_length_a       10.8459
_cell_length_b       10.8459
_cell_length_c       5.29309
_cell_angle_alpha    90
_cell_angle_beta     90
_cell_angle_gamma    120

_symmetry_space_group_name_H-M    "P 1"
_symmetry_int_tables_number       1

loop_
  _symmetry_equiv_pos_as_xyz
  'x, y, z'

loop_
  _atom_site_label
  _atom_site_occupancy
  _atom_site_fract_x
  _atom_site_fract_y
  _atom_site_fract_z
  _atom_site_thermal_displace_type
  _atom_site_B_iso_or_equiv
  _atom_site_type_symbol
  Ir1      1.0000 0.66667  0.33333  0.33295  Biso   1.000  Ir
  Ir2      1.0000 0.33333  0.66667  0.66628  Biso   1.000  Ir
  Ir3      1.0000 0.00000  0.00000  0.99961  Biso   1.000  Ir
  O1       1.0000 0.00086  0.50043  0.99216  Biso   1.000  O
  O2       1.0000 0.83290  0.16710  0.65883  Biso   1.000  O
  O3       1.0000 0.83290  0.66581  0.65883  Biso   1.000  O
  O4       1.0000 0.66753  0.83376  0.32550  Biso   1.000  O
  O5       1.0000 0.49957  0.50043  0.99216  Biso   1.000  O
  O6       1.0000 0.49957  0.99914  0.99216  Biso   1.000  O
  O7       1.0000 0.33419  0.16710  0.65883  Biso   1.000  O
  O8       1.0000 0.16624  0.83376  0.32550  Biso   1.000  O
  O9       1.0000 0.16624  0.33247  0.32550  Biso   1.000  O
