data_image0
_cell_length_a       6.03498
_cell_length_b       10.4528
_cell_length_c       12.0343
_cell_angle_alpha    90
_cell_angle_beta     90.0211
_cell_angle_gamma    90

_symmetry_space_group_name_H-M    "P 1"
_symmetry_int_tables_number       1

loop_
  _symmetry_equiv_pos_as_xyz
  'x, y, z'

loop_
  _atom_site_label
  _atom_site_occupancy
  _atom_site_fract_x
  _atom_site_fract_y
  _atom_site_fract_z
  _atom_site_thermal_displace_type
  _atom_site_B_iso_or_equiv
  _atom_site_type_symbol
  O1       1.0000 0.65263  0.33333  0.63367  Biso   1.000  O
  O2       1.0000 0.34737  0.33333  0.86633  Biso   1.000  O
  O3       1.0000 0.34737  0.66667  0.36632  Biso   1.000  O
  O4       1.0000 0.65263  0.66667  0.13367  Biso   1.000  O
  O5       1.0000 0.67370  0.00703  0.63370  Biso   1.000  O
  O6       1.0000 0.32630  0.00703  0.86630  Biso   1.000  O
  O7       1.0000 0.32630  0.99297  0.36630  Biso   1.000  O
  O8       1.0000 0.67370  0.99297  0.13370  Biso   1.000  O
  O9       1.0000 0.17371  0.15965  0.63370  Biso   1.000  O
  O10      1.0000 0.82629  0.15965  0.86630  Biso   1.000  O
  O11      1.0000 0.82629  0.84035  0.36630  Biso   1.000  O
  O12      1.0000 0.17371  0.84035  0.13370  Biso   1.000  O
  O13      1.0000 0.15263  0.83333  0.63367  Biso   1.000  O
  O14      1.0000 0.84737  0.83333  0.86633  Biso   1.000  O
  O15      1.0000 0.84737  0.16667  0.36632  Biso   1.000  O
  O16      1.0000 0.15263  0.16667  0.13367  Biso   1.000  O
  O17      1.0000 0.17370  0.50703  0.63370  Biso   1.000  O
  O18      1.0000 0.82630  0.50703  0.86630  Biso   1.000  O
  O19      1.0000 0.82630  0.49297  0.36630  Biso   1.000  O
  O20      1.0000 0.17370  0.49297  0.13370  Biso   1.000  O
  O21      1.0000 0.67371  0.65965  0.63370  Biso   1.000  O
  O22      1.0000 0.32629  0.65965  0.86630  Biso   1.000  O
  O23      1.0000 0.32629  0.34035  0.36630  Biso   1.000  O
  O24      1.0000 0.67371  0.34035  0.13370  Biso   1.000  O
  Ir1      1.0000 0.50000  0.83329  0.25000  Biso   1.000  Ir
  Ir2      1.0000 0.50000  0.16671  0.75000  Biso   1.000  Ir
  Ir3      1.0000 0.50000  0.50000  0.25000  Biso   1.000  Ir
  Ir4      1.0000 0.50000  0.50000  0.75000  Biso   1.000  Ir
  Ir5      1.0000 0.00000  0.33329  0.25000  Biso   1.000  Ir
  Ir6      1.0000 0.00000  0.66671  0.75000  Biso   1.000  Ir
  Ir7      1.0000 0.00000  0.00000  0.25000  Biso   1.000  Ir
  Ir8      1.0000 0.00000  0.00000  0.75000  Biso   1.000  Ir
