data_image0
_cell_length_a       9.89761
_cell_length_b       8.67826
_cell_length_c       3.95689
_cell_angle_alpha    90
_cell_angle_beta     101.5
_cell_angle_gamma    90

_symmetry_space_group_name_H-M    "P 1"
_symmetry_int_tables_number       1

loop_
  _symmetry_equiv_pos_as_xyz
  'x, y, z'

loop_
  _atom_site_label
  _atom_site_occupancy
  _atom_site_fract_x
  _atom_site_fract_y
  _atom_site_fract_z
  _atom_site_thermal_displace_type
  _atom_site_B_iso_or_equiv
  _atom_site_type_symbol
  Ir1      1.0000 0.74984  0.00000  0.99995  Biso   1.000  Ir
  Ir2      1.0000 0.25016  0.00000  0.00005  Biso   1.000  Ir
  Ir3      1.0000 0.24984  0.50000  0.99995  Biso   1.000  Ir
  Ir4      1.0000 0.75016  0.50000  0.00005  Biso   1.000  Ir
  O1       1.0000 0.50000  0.30452  0.50000  Biso   1.000  O
  O2       1.0000 0.50000  0.69548  0.50000  Biso   1.000  O
  O3       1.0000 0.69584  0.00000  0.50070  Biso   1.000  O
  O4       1.0000 0.30416  0.00000  0.49930  Biso   1.000  O
  O5       1.0000 0.50000  0.24988  0.00000  Biso   1.000  O
  O6       1.0000 0.50000  0.75012  0.00000  Biso   1.000  O
  O7       1.0000 0.00000  0.80452  0.50000  Biso   1.000  O
  O8       1.0000 0.00000  0.19548  0.50000  Biso   1.000  O
  O9       1.0000 0.19584  0.50000  0.50070  Biso   1.000  O
  O10      1.0000 0.80416  0.50000  0.49930  Biso   1.000  O
  O11      1.0000 0.00000  0.74988  0.00000  Biso   1.000  O
  O12      1.0000 0.00000  0.25012  0.00000  Biso   1.000  O
