data_image0
_cell_length_a       6.95318
_cell_length_b       6.95318
_cell_length_c       15.8863
_cell_angle_alpha    90
_cell_angle_beta     90
_cell_angle_gamma    120

_symmetry_space_group_name_H-M    "P 1"
_symmetry_int_tables_number       1

loop_
  _symmetry_equiv_pos_as_xyz
  'x, y, z'

loop_
  _atom_site_label
  _atom_site_occupancy
  _atom_site_fract_x
  _atom_site_fract_y
  _atom_site_fract_z
  _atom_site_thermal_displace_type
  _atom_site_B_iso_or_equiv
  _atom_site_type_symbol
  O1       1.0000 0.50000  0.00000  0.00000  Biso   1.000  O
  O2       1.0000 0.00000  0.50000  0.00000  Biso   1.000  O
  O3       1.0000 0.50000  0.50000  0.00000  Biso   1.000  O
  O4       1.0000 0.83364  0.16636  0.14307  Biso   1.000  O
  O5       1.0000 0.83364  0.66729  0.14307  Biso   1.000  O
  O6       1.0000 0.33271  0.16636  0.14307  Biso   1.000  O
  O7       1.0000 0.16636  0.83364  0.85693  Biso   1.000  O
  O8       1.0000 0.66729  0.83364  0.85693  Biso   1.000  O
  O9       1.0000 0.16636  0.33271  0.85693  Biso   1.000  O
  O10      1.0000 0.49962  0.50038  0.28658  Biso   1.000  O
  O11      1.0000 0.49962  0.99924  0.28658  Biso   1.000  O
  O12      1.0000 0.00076  0.50038  0.28658  Biso   1.000  O
  O13      1.0000 0.50038  0.49962  0.71342  Biso   1.000  O
  O14      1.0000 0.99924  0.49962  0.71342  Biso   1.000  O
  O15      1.0000 0.50038  0.00076  0.71342  Biso   1.000  O
  O16      1.0000 0.16687  0.83313  0.42900  Biso   1.000  O
  O17      1.0000 0.16687  0.33374  0.42900  Biso   1.000  O
  O18      1.0000 0.66626  0.83313  0.42900  Biso   1.000  O
  O19      1.0000 0.83313  0.16687  0.57100  Biso   1.000  O
  O20      1.0000 0.33374  0.16687  0.57100  Biso   1.000  O
  O21      1.0000 0.83313  0.66626  0.57100  Biso   1.000  O
  Ir1      1.0000 0.00000  0.00000  0.00000  Biso   1.000  Ir
  Ir2      1.0000 0.33333  0.66667  0.14336  Biso   1.000  Ir
  Ir3      1.0000 0.66667  0.33333  0.85664  Biso   1.000  Ir
  Ir4      1.0000 0.00000  0.00000  0.28029  Biso   1.000  Ir
  Ir5      1.0000 0.00000  0.00000  0.71971  Biso   1.000  Ir
  Ir6      1.0000 0.33333  0.66667  0.57054  Biso   1.000  Ir
  Ir7      1.0000 0.66667  0.33333  0.42946  Biso   1.000  Ir
