data_image0
_cell_length_a       11.552
_cell_length_b       5.80912
_cell_length_c       5.78407
_cell_angle_alpha    90
_cell_angle_beta     91.7765
_cell_angle_gamma    90

_symmetry_space_group_name_H-M    "P 1"
_symmetry_int_tables_number       1

loop_
  _symmetry_equiv_pos_as_xyz
  'x, y, z'

loop_
  _atom_site_label
  _atom_site_occupancy
  _atom_site_fract_x
  _atom_site_fract_y
  _atom_site_fract_z
  _atom_site_thermal_displace_type
  _atom_site_B_iso_or_equiv
  _atom_site_type_symbol
  Ir1      1.0000 0.04011  0.74676  0.91352  Biso   1.000  Ir
  Ir2      1.0000 0.04011  0.25324  0.41352  Biso   1.000  Ir
  Ir3      1.0000 0.54112  0.24384  0.81459  Biso   1.000  Ir
  Ir4      1.0000 0.54112  0.75616  0.31459  Biso   1.000  Ir
  O1       1.0000 0.51026  0.51661  0.02484  Biso   1.000  O
  O2       1.0000 0.51026  0.48339  0.52484  Biso   1.000  O
  O3       1.0000 0.99093  0.49784  0.66985  Biso   1.000  O
  O4       1.0000 0.99093  0.50216  0.16985  Biso   1.000  O
  O5       1.0000 0.20396  0.26679  0.44934  Biso   1.000  O
  O6       1.0000 0.20396  0.73321  0.94934  Biso   1.000  O
  O7       1.0000 0.48668  0.99270  0.54082  Biso   1.000  O
  O8       1.0000 0.48668  0.00730  0.04082  Biso   1.000  O
  O9       1.0000 0.70409  0.21181  0.85641  Biso   1.000  O
  O10      1.0000 0.70409  0.78819  0.35641  Biso   1.000  O
  O11      1.0000 0.00205  0.00782  0.67942  Biso   1.000  O
  O12      1.0000 0.00204  0.99218  0.17942  Biso   1.000  O
