data_image0
_cell_length_a       10.537
_cell_length_b       10.537
_cell_length_c       5.21907
_cell_angle_alpha    90
_cell_angle_beta     90
_cell_angle_gamma    90

_symmetry_space_group_name_H-M    "P 1"
_symmetry_int_tables_number       1

loop_
  _symmetry_equiv_pos_as_xyz
  'x, y, z'

loop_
  _atom_site_label
  _atom_site_occupancy
  _atom_site_fract_x
  _atom_site_fract_y
  _atom_site_fract_z
  _atom_site_thermal_displace_type
  _atom_site_B_iso_or_equiv
  _atom_site_type_symbol
  Ir1      1.0000 0.16289  0.33711  0.00000  Biso   1.000  Ir
  Ir2      1.0000 0.83711  0.66289  0.00000  Biso   1.000  Ir
  Ir3      1.0000 0.83711  0.33711  0.50000  Biso   1.000  Ir
  Ir4      1.0000 0.16289  0.66289  0.50000  Biso   1.000  Ir
  Ir5      1.0000 0.66289  0.83711  0.50000  Biso   1.000  Ir
  Ir6      1.0000 0.33711  0.16289  0.50000  Biso   1.000  Ir
  Ir7      1.0000 0.33711  0.83711  0.00000  Biso   1.000  Ir
  Ir8      1.0000 0.66289  0.16289  0.00000  Biso   1.000  Ir
  O1       1.0000 0.00000  0.00000  0.75000  Biso   1.000  O
  O2       1.0000 0.00000  0.00000  0.25000  Biso   1.000  O
  O3       1.0000 0.92461  0.21561  0.00000  Biso   1.000  O
  O4       1.0000 0.07539  0.78439  0.00000  Biso   1.000  O
  O5       1.0000 0.71561  0.57539  0.50000  Biso   1.000  O
  O6       1.0000 0.28439  0.42461  0.50000  Biso   1.000  O
  O7       1.0000 0.07539  0.21561  0.50000  Biso   1.000  O
  O8       1.0000 0.92461  0.78439  0.50000  Biso   1.000  O
  O9       1.0000 0.28439  0.57539  0.00000  Biso   1.000  O
  O10      1.0000 0.71561  0.42461  0.00000  Biso   1.000  O
  O11      1.0000 0.00000  0.50000  0.75000  Biso   1.000  O
  O12      1.0000 0.00000  0.50000  0.25000  Biso   1.000  O
  O13      1.0000 0.50000  0.50000  0.25000  Biso   1.000  O
  O14      1.0000 0.50000  0.50000  0.75000  Biso   1.000  O
  O15      1.0000 0.42461  0.71561  0.50000  Biso   1.000  O
  O16      1.0000 0.57539  0.28439  0.50000  Biso   1.000  O
  O17      1.0000 0.21561  0.07539  0.00000  Biso   1.000  O
  O18      1.0000 0.78439  0.92461  0.00000  Biso   1.000  O
  O19      1.0000 0.57539  0.71561  0.00000  Biso   1.000  O
  O20      1.0000 0.42461  0.28439  0.00000  Biso   1.000  O
  O21      1.0000 0.78439  0.07539  0.50000  Biso   1.000  O
  O22      1.0000 0.21561  0.92461  0.50000  Biso   1.000  O
  O23      1.0000 0.50000  0.00000  0.25000  Biso   1.000  O
  O24      1.0000 0.50000  0.00000  0.75000  Biso   1.000  O
