data_image0
_cell_length_a       8.53761
_cell_length_b       8.53761
_cell_length_c       6.86414
_cell_angle_alpha    90
_cell_angle_beta     90
_cell_angle_gamma    120

_symmetry_space_group_name_H-M    "P 1"
_symmetry_int_tables_number       1

loop_
  _symmetry_equiv_pos_as_xyz
  'x, y, z'

loop_
  _atom_site_label
  _atom_site_occupancy
  _atom_site_fract_x
  _atom_site_fract_y
  _atom_site_fract_z
  _atom_site_thermal_displace_type
  _atom_site_B_iso_or_equiv
  _atom_site_type_symbol
  O1       1.0000 0.33333  0.66667  0.00501  Biso   1.000  O
  O2       1.0000 0.66667  0.33333  0.50501  Biso   1.000  O
  O3       1.0000 0.66667  0.33333  0.99499  Biso   1.000  O
  O4       1.0000 0.33333  0.66667  0.49499  Biso   1.000  O
  O5       1.0000 0.34470  0.00202  0.16563  Biso   1.000  O
  O6       1.0000 0.99798  0.34268  0.16563  Biso   1.000  O
  O7       1.0000 0.65732  0.65530  0.16563  Biso   1.000  O
  O8       1.0000 0.65530  0.99798  0.66563  Biso   1.000  O
  O9       1.0000 0.00202  0.65732  0.66563  Biso   1.000  O
  O10      1.0000 0.34268  0.34470  0.66563  Biso   1.000  O
  O11      1.0000 0.00202  0.34470  0.83437  Biso   1.000  O
  O12      1.0000 0.34268  0.99798  0.83437  Biso   1.000  O
  O13      1.0000 0.65530  0.65732  0.83437  Biso   1.000  O
  O14      1.0000 0.99798  0.65530  0.33437  Biso   1.000  O
  O15      1.0000 0.65732  0.00202  0.33437  Biso   1.000  O
  O16      1.0000 0.34470  0.34268  0.33437  Biso   1.000  O
  O17      1.0000 0.00000  0.00000  0.25000  Biso   1.000  O
  O18      1.0000 0.00000  0.00000  0.75000  Biso   1.000  O
  Ir1      1.0000 0.67428  0.00000  0.00000  Biso   1.000  Ir
  Ir2      1.0000 0.00000  0.67428  0.00000  Biso   1.000  Ir
  Ir3      1.0000 0.32572  0.32572  0.00000  Biso   1.000  Ir
  Ir4      1.0000 0.32572  0.00000  0.50000  Biso   1.000  Ir
  Ir5      1.0000 0.00000  0.32572  0.50000  Biso   1.000  Ir
  Ir6      1.0000 0.67428  0.67428  0.50000  Biso   1.000  Ir
