data_image0
_cell_length_a       9.84058
_cell_length_b       9.84058
_cell_length_c       4.84373
_cell_angle_alpha    90
_cell_angle_beta     90
_cell_angle_gamma    90

_symmetry_space_group_name_H-M    "P 1"
_symmetry_int_tables_number       1

loop_
  _symmetry_equiv_pos_as_xyz
  'x, y, z'

loop_
  _atom_site_label
  _atom_site_occupancy
  _atom_site_fract_x
  _atom_site_fract_y
  _atom_site_fract_z
  _atom_site_thermal_displace_type
  _atom_site_B_iso_or_equiv
  _atom_site_type_symbol
  O1       1.0000 0.40740  0.40740  0.23241  Biso   1.000  O
  O2       1.0000 0.09260  0.09260  0.73241  Biso   1.000  O
  O3       1.0000 0.90740  0.09260  0.26759  Biso   1.000  O
  O4       1.0000 0.59260  0.40740  0.76759  Biso   1.000  O
  O5       1.0000 0.29919  0.29919  0.73203  Biso   1.000  O
  O6       1.0000 0.20081  0.20081  0.23203  Biso   1.000  O
  O7       1.0000 0.79919  0.20081  0.76797  Biso   1.000  O
  O8       1.0000 0.70081  0.29919  0.26797  Biso   1.000  O
  O9       1.0000 0.85496  0.50000  0.00000  Biso   1.000  O
  O10      1.0000 0.14504  0.50000  0.00000  Biso   1.000  O
  O11      1.0000 0.00000  0.64504  0.50000  Biso   1.000  O
  O12      1.0000 0.00000  0.35496  0.50000  Biso   1.000  O
  O13      1.0000 0.90740  0.90740  0.73241  Biso   1.000  O
  O14      1.0000 0.59260  0.59260  0.23241  Biso   1.000  O
  O15      1.0000 0.40740  0.59260  0.76759  Biso   1.000  O
  O16      1.0000 0.09260  0.90740  0.26759  Biso   1.000  O
  O17      1.0000 0.79919  0.79919  0.23203  Biso   1.000  O
  O18      1.0000 0.70081  0.70081  0.73203  Biso   1.000  O
  O19      1.0000 0.29919  0.70081  0.26797  Biso   1.000  O
  O20      1.0000 0.20081  0.79919  0.76797  Biso   1.000  O
  O21      1.0000 0.35496  0.00000  0.50000  Biso   1.000  O
  O22      1.0000 0.64504  0.00000  0.50000  Biso   1.000  O
  O23      1.0000 0.50000  0.14504  0.00000  Biso   1.000  O
  O24      1.0000 0.50000  0.85496  0.00000  Biso   1.000  O
  Ir1      1.0000 0.79153  0.50000  0.50000  Biso   1.000  Ir
  Ir2      1.0000 0.20847  0.50000  0.50000  Biso   1.000  Ir
  Ir3      1.0000 0.00000  0.70847  0.00000  Biso   1.000  Ir
  Ir4      1.0000 0.00000  0.29153  0.00000  Biso   1.000  Ir
  Ir5      1.0000 0.29153  0.00000  0.00000  Biso   1.000  Ir
  Ir6      1.0000 0.70847  0.00000  0.00000  Biso   1.000  Ir
  Ir7      1.0000 0.50000  0.20847  0.50000  Biso   1.000  Ir
  Ir8      1.0000 0.50000  0.79153  0.50000  Biso   1.000  Ir
