data_image0
_cell_length_a       9.24318
_cell_length_b       5.33655
_cell_length_c       17.6494
_cell_angle_alpha    90
_cell_angle_beta     90.0056
_cell_angle_gamma    90

_symmetry_space_group_name_H-M    "P 1"
_symmetry_int_tables_number       1

loop_
  _symmetry_equiv_pos_as_xyz
  'x, y, z'

loop_
  _atom_site_label
  _atom_site_occupancy
  _atom_site_fract_x
  _atom_site_fract_y
  _atom_site_fract_z
  _atom_site_thermal_displace_type
  _atom_site_B_iso_or_equiv
  _atom_site_type_symbol
  Ir1      1.0000 0.16666  0.50000  0.54152  Biso   1.000  Ir
  Ir2      1.0000 0.33338  0.00000  0.04146  Biso   1.000  Ir
  Ir3      1.0000 0.33336  0.00000  0.45853  Biso   1.000  Ir
  Ir4      1.0000 0.16668  0.50000  0.95852  Biso   1.000  Ir
  Ir5      1.0000 0.16674  0.50000  0.75002  Biso   1.000  Ir
  Ir6      1.0000 0.33332  0.00000  0.24997  Biso   1.000  Ir
  Ir7      1.0000 0.66666  0.00000  0.54152  Biso   1.000  Ir
  Ir8      1.0000 0.83338  0.50000  0.04146  Biso   1.000  Ir
  Ir9      1.0000 0.83336  0.50000  0.45853  Biso   1.000  Ir
  Ir10     1.0000 0.66668  0.00000  0.95852  Biso   1.000  Ir
  Ir11     1.0000 0.66674  0.00000  0.75002  Biso   1.000  Ir
  Ir12     1.0000 0.83332  0.50000  0.24997  Biso   1.000  Ir
  O1       1.0000 0.08325  0.24962  0.12741  Biso   1.000  O
  O2       1.0000 0.08325  0.75038  0.12741  Biso   1.000  O
  O3       1.0000 0.41680  0.25043  0.62744  Biso   1.000  O
  O4       1.0000 0.41680  0.74957  0.62744  Biso   1.000  O
  O5       1.0000 0.33360  0.50000  0.12741  Biso   1.000  O
  O6       1.0000 0.16645  0.00000  0.62745  Biso   1.000  O
  O7       1.0000 0.41680  0.25042  0.87258  Biso   1.000  O
  O8       1.0000 0.41680  0.74958  0.87258  Biso   1.000  O
  O9       1.0000 0.16645  0.00000  0.87257  Biso   1.000  O
  O10      1.0000 0.33359  0.50000  0.37256  Biso   1.000  O
  O11      1.0000 0.08323  0.75038  0.37256  Biso   1.000  O
  O12      1.0000 0.08323  0.24962  0.37256  Biso   1.000  O
  O13      1.0000 0.00004  0.00000  0.24998  Biso   1.000  O
  O14      1.0000 0.00003  0.00000  0.75002  Biso   1.000  O
  O15      1.0000 0.16670  0.50000  0.24999  Biso   1.000  O
  O16      1.0000 0.33337  0.00000  0.75001  Biso   1.000  O
  O17      1.0000 0.00004  0.00000  0.99999  Biso   1.000  O
  O18      1.0000 0.00001  0.00000  0.50001  Biso   1.000  O
  O19      1.0000 0.58325  0.74962  0.12741  Biso   1.000  O
  O20      1.0000 0.58325  0.25038  0.12741  Biso   1.000  O
  O21      1.0000 0.91680  0.75043  0.62744  Biso   1.000  O
  O22      1.0000 0.91680  0.24957  0.62744  Biso   1.000  O
  O23      1.0000 0.83360  0.00000  0.12741  Biso   1.000  O
  O24      1.0000 0.66646  0.50000  0.62745  Biso   1.000  O
  O25      1.0000 0.91680  0.75042  0.87258  Biso   1.000  O
  O26      1.0000 0.91680  0.24958  0.87258  Biso   1.000  O
  O27      1.0000 0.66645  0.50000  0.87257  Biso   1.000  O
  O28      1.0000 0.83359  0.00000  0.37256  Biso   1.000  O
  O29      1.0000 0.58323  0.25038  0.37256  Biso   1.000  O
  O30      1.0000 0.58323  0.74962  0.37256  Biso   1.000  O
  O31      1.0000 0.50004  0.50000  0.24998  Biso   1.000  O
  O32      1.0000 0.50003  0.50000  0.75002  Biso   1.000  O
  O33      1.0000 0.66670  0.00000  0.24999  Biso   1.000  O
  O34      1.0000 0.83337  0.50000  0.75001  Biso   1.000  O
  O35      1.0000 0.50004  0.50000  0.99999  Biso   1.000  O
  O36      1.0000 0.50001  0.50000  0.50001  Biso   1.000  O
