data_image0
_cell_length_a       17.0334
_cell_length_b       6.27964
_cell_length_c       6.30984
_cell_angle_alpha    90
_cell_angle_beta     90
_cell_angle_gamma    90

_symmetry_space_group_name_H-M    "P 1"
_symmetry_int_tables_number       1

loop_
  _symmetry_equiv_pos_as_xyz
  'x, y, z'

loop_
  _atom_site_label
  _atom_site_occupancy
  _atom_site_fract_x
  _atom_site_fract_y
  _atom_site_fract_z
  _atom_site_thermal_displace_type
  _atom_site_B_iso_or_equiv
  _atom_site_type_symbol
  Ir1      1.0000 0.07998  0.50000  0.00000  Biso   1.000  Ir
  Ir2      1.0000 0.42002  0.50000  0.50000  Biso   1.000  Ir
  Ir3      1.0000 0.42002  0.00000  0.00000  Biso   1.000  Ir
  Ir4      1.0000 0.07998  0.00000  0.50000  Biso   1.000  Ir
  Ir5      1.0000 0.57998  0.00000  0.00000  Biso   1.000  Ir
  Ir6      1.0000 0.92002  0.00000  0.50000  Biso   1.000  Ir
  Ir7      1.0000 0.92002  0.50000  0.00000  Biso   1.000  Ir
  Ir8      1.0000 0.57998  0.50000  0.50000  Biso   1.000  Ir
  O1       1.0000 0.00000  0.83675  0.16339  Biso   1.000  O
  O2       1.0000 0.00000  0.66325  0.66339  Biso   1.000  O
  O3       1.0000 0.00000  0.33675  0.33661  Biso   1.000  O
  O4       1.0000 0.00000  0.16325  0.83661  Biso   1.000  O
  O5       1.0000 0.16523  0.18278  0.18209  Biso   1.000  O
  O6       1.0000 0.33477  0.81722  0.68209  Biso   1.000  O
  O7       1.0000 0.33477  0.18278  0.31791  Biso   1.000  O
  O8       1.0000 0.16523  0.81722  0.81791  Biso   1.000  O
  O9       1.0000 0.33477  0.31722  0.81791  Biso   1.000  O
  O10      1.0000 0.16523  0.68278  0.31791  Biso   1.000  O
  O11      1.0000 0.16523  0.31722  0.68209  Biso   1.000  O
  O12      1.0000 0.33477  0.68278  0.18209  Biso   1.000  O
  O13      1.0000 0.50000  0.33675  0.16339  Biso   1.000  O
  O14      1.0000 0.50000  0.16325  0.66339  Biso   1.000  O
  O15      1.0000 0.50000  0.83675  0.33661  Biso   1.000  O
  O16      1.0000 0.50000  0.66325  0.83661  Biso   1.000  O
  O17      1.0000 0.66523  0.68278  0.18209  Biso   1.000  O
  O18      1.0000 0.83477  0.31722  0.68209  Biso   1.000  O
  O19      1.0000 0.83477  0.68278  0.31791  Biso   1.000  O
  O20      1.0000 0.66523  0.31722  0.81791  Biso   1.000  O
  O21      1.0000 0.83477  0.81722  0.81791  Biso   1.000  O
  O22      1.0000 0.66523  0.18278  0.31791  Biso   1.000  O
  O23      1.0000 0.66523  0.81722  0.68209  Biso   1.000  O
  O24      1.0000 0.83477  0.18278  0.18209  Biso   1.000  O
