data_image0
_cell_length_a       5.3816
_cell_length_b       7.53113
_cell_length_c       5.28485
_cell_angle_alpha    90
_cell_angle_beta     90
_cell_angle_gamma    90

_symmetry_space_group_name_H-M    "P 1"
_symmetry_int_tables_number       1

loop_
  _symmetry_equiv_pos_as_xyz
  'x, y, z'

loop_
  _atom_site_label
  _atom_site_occupancy
  _atom_site_fract_x
  _atom_site_fract_y
  _atom_site_fract_z
  _atom_site_thermal_displace_type
  _atom_site_B_iso_or_equiv
  _atom_site_type_symbol
  O1       1.0000 0.74940  0.00021  0.75084  Biso   1.000  O
  O2       1.0000 0.75060  0.99979  0.25084  Biso   1.000  O
  O3       1.0000 0.25060  0.50021  0.24916  Biso   1.000  O
  O4       1.0000 0.24940  0.49979  0.74916  Biso   1.000  O
  O5       1.0000 0.25060  0.99979  0.24916  Biso   1.000  O
  O6       1.0000 0.24940  0.00021  0.74916  Biso   1.000  O
  O7       1.0000 0.74940  0.49979  0.75084  Biso   1.000  O
  O8       1.0000 0.75060  0.50021  0.25084  Biso   1.000  O
  O9       1.0000 0.50032  0.25000  0.49998  Biso   1.000  O
  O10      1.0000 0.99968  0.75000  0.99998  Biso   1.000  O
  O11      1.0000 0.49968  0.75000  0.50002  Biso   1.000  O
  O12      1.0000 0.00032  0.25000  0.00002  Biso   1.000  O
  Ir1      1.0000 0.00000  0.00000  0.00000  Biso   1.000  Ir
  Ir2      1.0000 0.50000  0.00000  0.50000  Biso   1.000  Ir
  Ir3      1.0000 0.00000  0.50000  0.00000  Biso   1.000  Ir
  Ir4      1.0000 0.50000  0.50000  0.50000  Biso   1.000  Ir
