data_image0
_cell_length_a       13.9398
_cell_length_b       12.2305
_cell_length_c       5.34087
_cell_angle_alpha    90
_cell_angle_beta     94.3584
_cell_angle_gamma    90

_symmetry_space_group_name_H-M    "P 1"
_symmetry_int_tables_number       1

loop_
  _symmetry_equiv_pos_as_xyz
  'x, y, z'

loop_
  _atom_site_label
  _atom_site_occupancy
  _atom_site_fract_x
  _atom_site_fract_y
  _atom_site_fract_z
  _atom_site_thermal_displace_type
  _atom_site_B_iso_or_equiv
  _atom_site_type_symbol
  Ir1      1.0000 0.29416  0.00015  0.29445  Biso   1.000  Ir
  Ir2      1.0000 0.70584  0.00015  0.70555  Biso   1.000  Ir
  Ir3      1.0000 0.50000  0.79406  0.00000  Biso   1.000  Ir
  Ir4      1.0000 0.50000  0.20583  0.00000  Biso   1.000  Ir
  Ir5      1.0000 0.79416  0.50015  0.29445  Biso   1.000  Ir
  Ir6      1.0000 0.20584  0.50015  0.70555  Biso   1.000  Ir
  Ir7      1.0000 0.00000  0.29406  0.00000  Biso   1.000  Ir
  Ir8      1.0000 0.00000  0.70583  0.00000  Biso   1.000  Ir
  O1       1.0000 0.35923  0.00002  0.85969  Biso   1.000  O
  O2       1.0000 0.64077  0.00002  0.14031  Biso   1.000  O
  O3       1.0000 0.50000  0.85933  0.50000  Biso   1.000  O
  O4       1.0000 0.50000  0.14107  0.50000  Biso   1.000  O
  O5       1.0000 0.59570  0.40377  0.83991  Biso   1.000  O
  O6       1.0000 0.40430  0.40377  0.16009  Biso   1.000  O
  O7       1.0000 0.09603  0.09581  0.35376  Biso   1.000  O
  O8       1.0000 0.90397  0.09581  0.64624  Biso   1.000  O
  O9       1.0000 0.20089  0.79984  0.43790  Biso   1.000  O
  O10      1.0000 0.79911  0.79984  0.56210  Biso   1.000  O
  O11      1.0000 0.70024  0.70027  0.96380  Biso   1.000  O
  O12      1.0000 0.29976  0.70027  0.03620  Biso   1.000  O
  O13      1.0000 0.85923  0.50002  0.85969  Biso   1.000  O
  O14      1.0000 0.14077  0.50002  0.14031  Biso   1.000  O
  O15      1.0000 0.00000  0.35933  0.50000  Biso   1.000  O
  O16      1.0000 0.00000  0.64107  0.50000  Biso   1.000  O
  O17      1.0000 0.09570  0.90377  0.83991  Biso   1.000  O
  O18      1.0000 0.90430  0.90377  0.16009  Biso   1.000  O
  O19      1.0000 0.59603  0.59581  0.35376  Biso   1.000  O
  O20      1.0000 0.40397  0.59581  0.64624  Biso   1.000  O
  O21      1.0000 0.70089  0.29984  0.43790  Biso   1.000  O
  O22      1.0000 0.29911  0.29984  0.56210  Biso   1.000  O
  O23      1.0000 0.20024  0.20027  0.96380  Biso   1.000  O
  O24      1.0000 0.79976  0.20027  0.03620  Biso   1.000  O
