data_image0
_cell_length_a       6.01054
_cell_length_b       6.36168
_cell_length_c       17.1459
_cell_angle_alpha    93.9675
_cell_angle_beta     90.712
_cell_angle_gamma    90.5564

_symmetry_space_group_name_H-M    "P 1"
_symmetry_int_tables_number       1

loop_
  _symmetry_equiv_pos_as_xyz
  'x, y, z'

loop_
  _atom_site_label
  _atom_site_occupancy
  _atom_site_fract_x
  _atom_site_fract_y
  _atom_site_fract_z
  _atom_site_thermal_displace_type
  _atom_site_B_iso_or_equiv
  _atom_site_type_symbol
  Ir1      1.0000 0.00008  0.31817  0.83592  Biso   1.000  Ir
  Ir2      1.0000 0.49522  0.16781  0.66990  Biso   1.000  Ir
  Ir3      1.0000 0.98727  0.01061  0.50251  Biso   1.000  Ir
  Ir4      1.0000 0.49271  0.82444  0.33454  Biso   1.000  Ir
  Ir5      1.0000 0.01697  0.65391  0.17018  Biso   1.000  Ir
  Ir6      1.0000 0.49045  0.47565  0.00470  Biso   1.000  Ir
  Ir7      1.0000 0.99479  0.66671  0.66942  Biso   1.000  Ir
  O1       1.0000 0.88449  0.67658  0.80165  Biso   1.000  O
  O2       1.0000 0.61260  0.51663  0.62801  Biso   1.000  O
  O3       1.0000 0.86046  0.35459  0.46601  Biso   1.000  O
  O4       1.0000 0.38232  0.40623  0.79788  Biso   1.000  O
  O5       1.0000 0.37274  0.06212  0.45665  Biso   1.000  O
  O6       1.0000 0.11795  0.55843  0.96093  Biso   1.000  O
  O7       1.0000 0.36278  0.76198  0.11559  Biso   1.000  O
  O8       1.0000 0.11643  0.25293  0.62906  Biso   1.000  O
  O9       1.0000 0.12449  0.91222  0.29226  Biso   1.000  O
  O10      1.0000 0.87407  0.08082  0.70979  Biso   1.000  O
  O11      1.0000 0.87331  0.76300  0.37704  Biso   1.000  O
  O12      1.0000 0.61643  0.24928  0.87956  Biso   1.000  O
  O13      1.0000 0.87447  0.41620  0.04521  Biso   1.000  O
  O14      1.0000 0.60748  0.92641  0.54295  Biso   1.000  O
  O15      1.0000 0.64253  0.70326  0.20888  Biso   1.000  O
  O16      1.0000 0.12246  0.97641  0.87451  Biso   1.000  O
  O17      1.0000 0.37535  0.81986  0.71231  Biso   1.000  O
  O18      1.0000 0.10456  0.65288  0.53706  Biso   1.000  O
  O19      1.0000 0.36967  0.42478  0.30999  Biso   1.000  O
  O20      1.0000 0.19603  0.31741  0.18486  Biso   1.000  O
  O21      1.0000 0.41218  0.16712  0.06255  Biso   1.000  O
