data_image0
_cell_length_a       5.1949
_cell_length_b       5.61095
_cell_length_c       26.3673
_cell_angle_alpha    90
_cell_angle_beta     94.0944
_cell_angle_gamma    90

_symmetry_space_group_name_H-M    "P 1"
_symmetry_int_tables_number       1

loop_
  _symmetry_equiv_pos_as_xyz
  'x, y, z'

loop_
  _atom_site_label
  _atom_site_occupancy
  _atom_site_fract_x
  _atom_site_fract_y
  _atom_site_fract_z
  _atom_site_thermal_displace_type
  _atom_site_B_iso_or_equiv
  _atom_site_type_symbol
  O1       1.0000 0.58026  0.75000  0.79046  Biso   1.000  O
  O2       1.0000 0.41974  0.25000  0.20954  Biso   1.000  O
  O3       1.0000 0.08632  0.99864  0.12575  Biso   1.000  O
  O4       1.0000 0.91368  0.49864  0.87425  Biso   1.000  O
  O5       1.0000 0.91368  0.00136  0.87425  Biso   1.000  O
  O6       1.0000 0.08632  0.50136  0.12575  Biso   1.000  O
  O7       1.0000 0.24562  0.50147  0.70853  Biso   1.000  O
  O8       1.0000 0.75437  0.00147  0.29147  Biso   1.000  O
  O9       1.0000 0.75437  0.49853  0.29147  Biso   1.000  O
  O10      1.0000 0.24562  0.99853  0.70853  Biso   1.000  O
  O11      1.0000 0.24599  0.50161  0.04188  Biso   1.000  O
  O12      1.0000 0.75401  0.00161  0.95813  Biso   1.000  O
  O13      1.0000 0.75401  0.49839  0.95813  Biso   1.000  O
  O14      1.0000 0.24599  0.99839  0.04188  Biso   1.000  O
  O15      1.0000 0.08618  0.50137  0.79240  Biso   1.000  O
  O16      1.0000 0.91382  0.00137  0.20760  Biso   1.000  O
  O17      1.0000 0.91382  0.49863  0.20760  Biso   1.000  O
  O18      1.0000 0.08618  0.99863  0.79240  Biso   1.000  O
  O19      1.0000 0.26797  0.75000  0.62521  Biso   1.000  O
  O20      1.0000 0.73203  0.25000  0.37479  Biso   1.000  O
  O21      1.0000 0.08641  0.99861  0.45909  Biso   1.000  O
  O22      1.0000 0.91359  0.49861  0.54091  Biso   1.000  O
  O23      1.0000 0.91359  0.00139  0.54091  Biso   1.000  O
  O24      1.0000 0.08641  0.50139  0.45909  Biso   1.000  O
  O25      1.0000 0.58045  0.75000  0.45715  Biso   1.000  O
  O26      1.0000 0.41955  0.25000  0.54285  Biso   1.000  O
  O27      1.0000 0.26819  0.75000  0.95857  Biso   1.000  O
  O28      1.0000 0.73181  0.25000  0.04143  Biso   1.000  O
  O29      1.0000 0.24605  0.99852  0.37520  Biso   1.000  O
  O30      1.0000 0.75395  0.49852  0.62480  Biso   1.000  O
  O31      1.0000 0.75395  0.00148  0.62480  Biso   1.000  O
  O32      1.0000 0.24605  0.50148  0.37520  Biso   1.000  O
  O33      1.0000 0.58007  0.75000  0.12378  Biso   1.000  O
  O34      1.0000 0.41993  0.25000  0.87622  Biso   1.000  O
  O35      1.0000 0.26843  0.75000  0.29189  Biso   1.000  O
  O36      1.0000 0.73157  0.25000  0.70811  Biso   1.000  O
  Ir1      1.0000 0.74343  0.75000  0.70747  Biso   1.000  Ir
  Ir2      1.0000 0.25657  0.25000  0.29252  Biso   1.000  Ir
  Ir3      1.0000 0.74386  0.75000  0.37418  Biso   1.000  Ir
  Ir4      1.0000 0.25615  0.25000  0.62582  Biso   1.000  Ir
  Ir5      1.0000 0.41422  0.75000  0.54235  Biso   1.000  Ir
  Ir6      1.0000 0.58578  0.25000  0.45765  Biso   1.000  Ir
  Ir7      1.0000 0.41438  0.75000  0.20900  Biso   1.000  Ir
  Ir8      1.0000 0.58562  0.25000  0.79100  Biso   1.000  Ir
  Ir9      1.0000 0.74363  0.75000  0.04080  Biso   1.000  Ir
  Ir10     1.0000 0.25637  0.25000  0.95920  Biso   1.000  Ir
  Ir11     1.0000 0.41440  0.75000  0.87573  Biso   1.000  Ir
  Ir12     1.0000 0.58560  0.25000  0.12427  Biso   1.000  Ir
