data_image0
_cell_length_a       10.9726
_cell_length_b       10.9726
_cell_length_c       21.5124
_cell_angle_alpha    90
_cell_angle_beta     90
_cell_angle_gamma    120

_symmetry_space_group_name_H-M    "P 1"
_symmetry_int_tables_number       1

loop_
  _symmetry_equiv_pos_as_xyz
  'x, y, z'

loop_
  _atom_site_label
  _atom_site_occupancy
  _atom_site_fract_x
  _atom_site_fract_y
  _atom_site_fract_z
  _atom_site_thermal_displace_type
  _atom_site_B_iso_or_equiv
  _atom_site_type_symbol
  Ir1      1.0000 0.33333  0.66667  0.41795  Biso   1.000  Ir
  Ir2      1.0000 0.66667  0.33333  0.08205  Biso   1.000  Ir
  Ir3      1.0000 0.66667  0.33333  0.58205  Biso   1.000  Ir
  Ir4      1.0000 0.33333  0.66667  0.91795  Biso   1.000  Ir
  Ir5      1.0000 0.33333  0.66667  0.66545  Biso   1.000  Ir
  Ir6      1.0000 0.66667  0.33333  0.83455  Biso   1.000  Ir
  Ir7      1.0000 0.66667  0.33333  0.33455  Biso   1.000  Ir
  Ir8      1.0000 0.33333  0.66667  0.16545  Biso   1.000  Ir
  Ir9      1.0000 0.00000  0.00000  0.25000  Biso   1.000  Ir
  Ir10     1.0000 0.00000  0.00000  0.75000  Biso   1.000  Ir
  Ir11     1.0000 0.00000  0.00000  0.00000  Biso   1.000  Ir
  Ir12     1.0000 0.00000  0.00000  0.50000  Biso   1.000  Ir
  O1       1.0000 0.17730  0.33676  0.08268  Biso   1.000  O
  O2       1.0000 0.66324  0.84054  0.08268  Biso   1.000  O
  O3       1.0000 0.15946  0.82270  0.08268  Biso   1.000  O
  O4       1.0000 0.33676  0.17730  0.41732  Biso   1.000  O
  O5       1.0000 0.84054  0.66324  0.41732  Biso   1.000  O
  O6       1.0000 0.82270  0.15946  0.41732  Biso   1.000  O
  O7       1.0000 0.82270  0.66324  0.91732  Biso   1.000  O
  O8       1.0000 0.33676  0.15946  0.91732  Biso   1.000  O
  O9       1.0000 0.84054  0.17730  0.91732  Biso   1.000  O
  O10      1.0000 0.66324  0.82270  0.58268  Biso   1.000  O
  O11      1.0000 0.15946  0.33676  0.58268  Biso   1.000  O
  O12      1.0000 0.17730  0.84054  0.58268  Biso   1.000  O
  O13      1.0000 0.85272  0.66967  0.16577  Biso   1.000  O
  O14      1.0000 0.33033  0.18305  0.16577  Biso   1.000  O
  O15      1.0000 0.81695  0.14728  0.16577  Biso   1.000  O
  O16      1.0000 0.66967  0.85272  0.33422  Biso   1.000  O
  O17      1.0000 0.18305  0.33033  0.33422  Biso   1.000  O
  O18      1.0000 0.14728  0.81695  0.33422  Biso   1.000  O
  O19      1.0000 0.14728  0.33033  0.83422  Biso   1.000  O
  O20      1.0000 0.66967  0.81695  0.83422  Biso   1.000  O
  O21      1.0000 0.18305  0.85272  0.83422  Biso   1.000  O
  O22      1.0000 0.33033  0.14728  0.66578  Biso   1.000  O
  O23      1.0000 0.81695  0.66967  0.66578  Biso   1.000  O
  O24      1.0000 0.85272  0.18305  0.66578  Biso   1.000  O
  O25      1.0000 0.52182  0.00000  0.25000  Biso   1.000  O
  O26      1.0000 0.00000  0.52182  0.25000  Biso   1.000  O
  O27      1.0000 0.47818  0.47818  0.25000  Biso   1.000  O
  O28      1.0000 0.47818  0.00000  0.75000  Biso   1.000  O
  O29      1.0000 0.00000  0.47818  0.75000  Biso   1.000  O
  O30      1.0000 0.52182  0.52182  0.75000  Biso   1.000  O
  O31      1.0000 0.50000  0.00000  0.00000  Biso   1.000  O
  O32      1.0000 0.00000  0.50000  0.00000  Biso   1.000  O
  O33      1.0000 0.50000  0.50000  0.00000  Biso   1.000  O
  O34      1.0000 0.00000  0.50000  0.50000  Biso   1.000  O
  O35      1.0000 0.50000  0.00000  0.50000  Biso   1.000  O
  O36      1.0000 0.50000  0.50000  0.50000  Biso   1.000  O
