data_image0
_cell_length_a       5.82181
_cell_length_b       9.64655
_cell_length_c       10.1795
_cell_angle_alpha    98.3918
_cell_angle_beta     96.9965
_cell_angle_gamma    98.0871

_symmetry_space_group_name_H-M    "P 1"
_symmetry_int_tables_number       1

loop_
  _symmetry_equiv_pos_as_xyz
  'x, y, z'

loop_
  _atom_site_label
  _atom_site_occupancy
  _atom_site_fract_x
  _atom_site_fract_y
  _atom_site_fract_z
  _atom_site_thermal_displace_type
  _atom_site_B_iso_or_equiv
  _atom_site_type_symbol
  Ir1      1.0000 0.00000  0.50000  0.50000  Biso   1.000  Ir
  Ir2      1.0000 0.00000  0.00000  0.50000  Biso   1.000  Ir
  Ir3      1.0000 0.00000  0.00000  0.00000  Biso   1.000  Ir
  Ir4      1.0000 0.50000  0.50000  0.00000  Biso   1.000  Ir
  O1       1.0000 0.36657  0.60428  0.51560  Biso   1.000  O
  O2       1.0000 0.63343  0.39572  0.48440  Biso   1.000  O
  O3       1.0000 0.06398  0.10091  0.17871  Biso   1.000  O
  O4       1.0000 0.93602  0.89909  0.82129  Biso   1.000  O
  O5       1.0000 0.36796  0.75247  0.78801  Biso   1.000  O
  O6       1.0000 0.63204  0.24753  0.21199  Biso   1.000  O
  O7       1.0000 0.38451  0.75246  0.28799  Biso   1.000  O
  O8       1.0000 0.61549  0.24754  0.71201  Biso   1.000  O
  O9       1.0000 0.96312  0.89910  0.32129  Biso   1.000  O
  O10      1.0000 0.03688  0.10090  0.67871  Biso   1.000  O
  O11      1.0000 0.76225  0.39572  0.98444  Biso   1.000  O
  O12      1.0000 0.23775  0.60428  0.01557  Biso   1.000  O
