data_image0
_cell_length_a       7.33903
_cell_length_b       7.33904
_cell_length_c       24.554
_cell_angle_alpha    90
_cell_angle_beta     90
_cell_angle_gamma    120

_symmetry_space_group_name_H-M    "P 1"
_symmetry_int_tables_number       1

loop_
  _symmetry_equiv_pos_as_xyz
  'x, y, z'

loop_
  _atom_site_label
  _atom_site_occupancy
  _atom_site_fract_x
  _atom_site_fract_y
  _atom_site_fract_z
  _atom_site_thermal_displace_type
  _atom_site_B_iso_or_equiv
  _atom_site_type_symbol
  O1       1.0000 0.00000  0.00000  0.57435  Biso   1.000  O
  O2       1.0000 0.00000  0.00000  0.49662  Biso   1.000  O
  O3       1.0000 0.00000  0.00000  0.41797  Biso   1.000  O
  O4       1.0000 0.66667  0.33333  0.90769  Biso   1.000  O
  O5       1.0000 0.66667  0.33333  0.82996  Biso   1.000  O
  O6       1.0000 0.66667  0.33333  0.75130  Biso   1.000  O
  O7       1.0000 0.33333  0.66667  0.24102  Biso   1.000  O
  O8       1.0000 0.33333  0.66667  0.16329  Biso   1.000  O
  O9       1.0000 0.33333  0.66667  0.08463  Biso   1.000  O
  Ir1      1.0000 0.66667  0.33333  0.33333  Biso   1.000  Ir
  Ir2      1.0000 0.33333  0.66667  0.66667  Biso   1.000  Ir
  Ir3      1.0000 0.00000  0.00000  1.00000  Biso   1.000  Ir
