data_image0
_cell_length_a       10.8675
_cell_length_b       10.8675
_cell_length_c       8.91474
_cell_angle_alpha    90
_cell_angle_beta     90
_cell_angle_gamma    120

_symmetry_space_group_name_H-M    "P 1"
_symmetry_int_tables_number       1

loop_
  _symmetry_equiv_pos_as_xyz
  'x, y, z'

loop_
  _atom_site_label
  _atom_site_occupancy
  _atom_site_fract_x
  _atom_site_fract_y
  _atom_site_fract_z
  _atom_site_thermal_displace_type
  _atom_site_B_iso_or_equiv
  _atom_site_type_symbol
  Ir1      1.0000 0.33220  0.00000  0.25126  Biso   1.000  Ir
  Ir2      1.0000 0.00000  0.33220  0.25126  Biso   1.000  Ir
  Ir3      1.0000 0.66780  0.66780  0.25126  Biso   1.000  Ir
  Ir4      1.0000 0.66780  0.00000  0.75126  Biso   1.000  Ir
  Ir5      1.0000 0.00000  0.66780  0.75126  Biso   1.000  Ir
  Ir6      1.0000 0.33220  0.33220  0.75126  Biso   1.000  Ir
  O1       1.0000 0.68607  0.00000  0.08207  Biso   1.000  O
  O2       1.0000 0.00000  0.68607  0.08207  Biso   1.000  O
  O3       1.0000 0.31393  0.31393  0.08207  Biso   1.000  O
  O4       1.0000 0.31393  0.00000  0.58207  Biso   1.000  O
  O5       1.0000 0.00000  0.31393  0.58207  Biso   1.000  O
  O6       1.0000 0.68607  0.68607  0.58207  Biso   1.000  O
  O7       1.0000 0.33333  0.66667  0.73432  Biso   1.000  O
  O8       1.0000 0.66667  0.33333  0.23432  Biso   1.000  O
  O9       1.0000 0.33333  0.66667  0.23432  Biso   1.000  O
  O10      1.0000 0.66667  0.33333  0.73432  Biso   1.000  O
  O11      1.0000 0.00000  0.00000  0.27751  Biso   1.000  O
  O12      1.0000 0.00000  0.00000  0.77751  Biso   1.000  O
  O13      1.0000 0.64968  0.00000  0.42088  Biso   1.000  O
  O14      1.0000 0.00000  0.64968  0.42088  Biso   1.000  O
  O15      1.0000 0.35032  0.35032  0.42088  Biso   1.000  O
  O16      1.0000 0.35032  0.00000  0.92088  Biso   1.000  O
  O17      1.0000 0.00000  0.35032  0.92088  Biso   1.000  O
  O18      1.0000 0.64968  0.64968  0.92088  Biso   1.000  O
