data_image0
_cell_length_a       7.92899
_cell_length_b       7.92898
_cell_length_c       31.0192
_cell_angle_alpha    90
_cell_angle_beta     90
_cell_angle_gamma    120

_symmetry_space_group_name_H-M    "P 1"
_symmetry_int_tables_number       1

loop_
  _symmetry_equiv_pos_as_xyz
  'x, y, z'

loop_
  _atom_site_label
  _atom_site_occupancy
  _atom_site_fract_x
  _atom_site_fract_y
  _atom_site_fract_z
  _atom_site_thermal_displace_type
  _atom_site_B_iso_or_equiv
  _atom_site_type_symbol
  Ir1      1.0000 0.66667  0.33333  0.04242  Biso   1.000  Ir
  Ir2      1.0000 0.00000  0.00000  0.29091  Biso   1.000  Ir
  Ir3      1.0000 0.00000  0.00000  0.12550  Biso   1.000  Ir
  Ir4      1.0000 0.66667  0.33333  0.20783  Biso   1.000  Ir
  Ir5      1.0000 0.33333  0.66667  0.37575  Biso   1.000  Ir
  Ir6      1.0000 0.66667  0.33333  0.62425  Biso   1.000  Ir
  Ir7      1.0000 0.66667  0.33333  0.45884  Biso   1.000  Ir
  Ir8      1.0000 0.33333  0.66667  0.54117  Biso   1.000  Ir
  Ir9      1.0000 0.00000  0.00000  0.70909  Biso   1.000  Ir
  Ir10     1.0000 0.33333  0.66667  0.95758  Biso   1.000  Ir
  Ir11     1.0000 0.33333  0.66667  0.79217  Biso   1.000  Ir
  Ir12     1.0000 0.00000  0.00000  0.87450  Biso   1.000  Ir
  O1       1.0000 0.16681  0.83319  0.04163  Biso   1.000  O
  O2       1.0000 0.16681  0.33362  0.04163  Biso   1.000  O
  O3       1.0000 0.66638  0.83319  0.04163  Biso   1.000  O
  O4       1.0000 0.49986  0.50014  0.29171  Biso   1.000  O
  O5       1.0000 0.00029  0.50014  0.29171  Biso   1.000  O
  O6       1.0000 0.49986  0.99971  0.29171  Biso   1.000  O
  O7       1.0000 0.49987  0.50013  0.12498  Biso   1.000  O
  O8       1.0000 0.49987  0.99974  0.12498  Biso   1.000  O
  O9       1.0000 0.00026  0.50013  0.12498  Biso   1.000  O
  O10      1.0000 0.16680  0.83320  0.20836  Biso   1.000  O
  O11      1.0000 0.66640  0.83320  0.20836  Biso   1.000  O
  O12      1.0000 0.16680  0.33359  0.20836  Biso   1.000  O
  O13      1.0000 0.83348  0.16652  0.37496  Biso   1.000  O
  O14      1.0000 0.83348  0.66695  0.37496  Biso   1.000  O
  O15      1.0000 0.33305  0.16652  0.37496  Biso   1.000  O
  O16      1.0000 0.16652  0.83348  0.62504  Biso   1.000  O
  O17      1.0000 0.66695  0.83348  0.62504  Biso   1.000  O
  O18      1.0000 0.16652  0.33305  0.62504  Biso   1.000  O
  O19      1.0000 0.16654  0.83346  0.45831  Biso   1.000  O
  O20      1.0000 0.16654  0.33307  0.45831  Biso   1.000  O
  O21      1.0000 0.66693  0.83346  0.45831  Biso   1.000  O
  O22      1.0000 0.83346  0.16654  0.54169  Biso   1.000  O
  O23      1.0000 0.33307  0.16654  0.54169  Biso   1.000  O
  O24      1.0000 0.83346  0.66693  0.54169  Biso   1.000  O
  O25      1.0000 0.50014  0.49986  0.70829  Biso   1.000  O
  O26      1.0000 0.50014  0.00029  0.70829  Biso   1.000  O
  O27      1.0000 0.99971  0.49986  0.70829  Biso   1.000  O
  O28      1.0000 0.83319  0.16681  0.95837  Biso   1.000  O
  O29      1.0000 0.33362  0.16681  0.95837  Biso   1.000  O
  O30      1.0000 0.83319  0.66638  0.95837  Biso   1.000  O
  O31      1.0000 0.83320  0.16680  0.79164  Biso   1.000  O
  O32      1.0000 0.83320  0.66641  0.79164  Biso   1.000  O
  O33      1.0000 0.33359  0.16680  0.79164  Biso   1.000  O
  O34      1.0000 0.50013  0.49987  0.87503  Biso   1.000  O
  O35      1.0000 0.99974  0.49987  0.87503  Biso   1.000  O
  O36      1.0000 0.50013  0.00026  0.87503  Biso   1.000  O
