data_image0
_cell_length_a       8.27862
_cell_length_b       13.453
_cell_length_c       14.1611
_cell_angle_alpha    109.348
_cell_angle_beta     93.589
_cell_angle_gamma    94.0563

_symmetry_space_group_name_H-M    "P 1"
_symmetry_int_tables_number       1

loop_
  _symmetry_equiv_pos_as_xyz
  'x, y, z'

loop_
  _atom_site_label
  _atom_site_occupancy
  _atom_site_fract_x
  _atom_site_fract_y
  _atom_site_fract_z
  _atom_site_thermal_displace_type
  _atom_site_B_iso_or_equiv
  _atom_site_type_symbol
  O1       1.0000 0.46446  0.54822  0.16614  Biso   1.000  O
  O2       1.0000 0.46451  0.04825  0.66614  Biso   1.000  O
  O3       1.0000 0.94817  0.84596  0.94284  Biso   1.000  O
  O4       1.0000 0.94817  0.34600  0.44282  Biso   1.000  O
  O5       1.0000 0.94749  0.66114  0.02342  Biso   1.000  O
  O6       1.0000 0.94752  0.16120  0.52341  Biso   1.000  O
  O7       1.0000 0.08373  0.53675  0.15396  Biso   1.000  O
  O8       1.0000 0.08375  0.03678  0.65394  Biso   1.000  O
  O9       1.0000 0.23875  0.85120  0.66168  Biso   1.000  O
  O10      1.0000 0.23874  0.35120  0.16170  Biso   1.000  O
  O11      1.0000 0.25863  0.53670  0.97407  Biso   1.000  O
  O12      1.0000 0.25866  0.03674  0.47408  Biso   1.000  O
  O13      1.0000 0.24763  0.93685  0.05196  Biso   1.000  O
  O14      1.0000 0.24762  0.43682  0.55194  Biso   1.000  O
  O15      1.0000 0.22535  0.64811  0.35167  Biso   1.000  O
  O16      1.0000 0.22534  0.14811  0.85168  Biso   1.000  O
  O17      1.0000 0.41940  0.85202  0.48477  Biso   1.000  O
  O18      1.0000 0.41936  0.35198  0.98475  Biso   1.000  O
  O19      1.0000 0.39682  0.96923  0.85575  Biso   1.000  O
  O20      1.0000 0.39681  0.46922  0.35576  Biso   1.000  O
  O21      1.0000 0.40876  0.64931  0.53737  Biso   1.000  O
  O22      1.0000 0.40875  0.14934  0.03738  Biso   1.000  O
  O23      1.0000 0.58631  0.85629  0.96332  Biso   1.000  O
  O24      1.0000 0.58630  0.35628  0.46331  Biso   1.000  O
  O25      1.0000 0.58623  0.53011  0.64979  Biso   1.000  O
  O26      1.0000 0.58627  0.03013  0.14982  Biso   1.000  O
  O27      1.0000 0.58052  0.65090  0.01180  Biso   1.000  O
  O28      1.0000 0.58055  0.15095  0.51181  Biso   1.000  O
  O29      1.0000 0.78379  0.85831  0.14300  Biso   1.000  O
  O30      1.0000 0.78382  0.35830  0.64297  Biso   1.000  O
  O31      1.0000 0.75467  0.64982  0.83466  Biso   1.000  O
  O32      1.0000 0.75468  0.14988  0.33469  Biso   1.000  O
  O33      1.0000 0.75848  0.96939  0.52695  Biso   1.000  O
  O34      1.0000 0.75844  0.46936  0.02693  Biso   1.000  O
  O35      1.0000 0.92995  0.97181  0.34434  Biso   1.000  O
  O36      1.0000 0.92993  0.47178  0.84432  Biso   1.000  O
  O37      1.0000 0.05684  0.84701  0.47219  Biso   1.000  O
  O38      1.0000 0.05681  0.34698  0.97219  Biso   1.000  O
  O39      1.0000 0.03607  0.65418  0.53712  Biso   1.000  O
  O40      1.0000 0.03610  0.15417  0.03713  Biso   1.000  O
  O41      1.0000 0.55222  0.94659  0.33614  Biso   1.000  O
  O42      1.0000 0.55220  0.44656  0.83612  Biso   1.000  O
  Ir1      1.0000 0.28080  0.00918  0.74048  Biso   1.000  Ir
  Ir2      1.0000 0.28075  0.50920  0.24045  Biso   1.000  Ir
  Ir3      1.0000 0.52028  0.99899  0.50309  Biso   1.000  Ir
  Ir4      1.0000 0.52025  0.49901  0.00307  Biso   1.000  Ir
  Ir5      1.0000 0.44333  0.98824  0.01281  Biso   1.000  Ir
  Ir6      1.0000 0.44331  0.48826  0.51282  Biso   1.000  Ir
  Ir7      1.0000 0.78595  0.26686  0.48586  Biso   1.000  Ir
  Ir8      1.0000 0.78595  0.76689  0.98587  Biso   1.000  Ir
  Ir9      1.0000 0.72541  0.99149  0.25934  Biso   1.000  Ir
  Ir10     1.0000 0.72542  0.49155  0.75939  Biso   1.000  Ir
  Ir11     1.0000 0.02016  0.00703  0.49766  Biso   1.000  Ir
  Ir12     1.0000 0.02012  0.50705  0.99766  Biso   1.000  Ir
  Ir13     1.0000 0.20981  0.23746  0.00848  Biso   1.000  Ir
  Ir14     1.0000 0.20983  0.73750  0.50849  Biso   1.000  Ir
