data_image0
_cell_length_a       6.97128
_cell_length_b       6.1543
_cell_length_c       25.3711
_cell_angle_alpha    90
_cell_angle_beta     90.7813
_cell_angle_gamma    90

_symmetry_space_group_name_H-M    "P 1"
_symmetry_int_tables_number       1

loop_
  _symmetry_equiv_pos_as_xyz
  'x, y, z'

loop_
  _atom_site_label
  _atom_site_occupancy
  _atom_site_fract_x
  _atom_site_fract_y
  _atom_site_fract_z
  _atom_site_thermal_displace_type
  _atom_site_B_iso_or_equiv
  _atom_site_type_symbol
  O1       1.0000 0.77028  0.00000  0.99982  Biso   1.000  O
  O2       1.0000 0.90577  0.00000  0.22750  Biso   1.000  O
  O3       1.0000 0.92887  0.00000  0.44107  Biso   1.000  O
  O4       1.0000 0.99366  0.00000  0.65768  Biso   1.000  O
  O5       1.0000 0.16179  0.24795  0.88143  Biso   1.000  O
  O6       1.0000 0.16179  0.75205  0.88143  Biso   1.000  O
  O7       1.0000 0.92712  0.50000  0.54622  Biso   1.000  O
  O8       1.0000 0.86649  0.50000  0.11849  Biso   1.000  O
  O9       1.0000 0.02154  0.50000  0.75174  Biso   1.000  O
  O10      1.0000 0.91246  0.50000  0.33370  Biso   1.000  O
  O11      1.0000 0.43817  0.00000  0.54925  Biso   1.000  O
  O12      1.0000 0.41548  0.00000  0.33522  Biso   1.000  O
  O13      1.0000 0.37745  0.00000  0.15357  Biso   1.000  O
  O14      1.0000 0.33684  0.00000  0.07879  Biso   1.000  O
  O15      1.0000 0.56605  0.00000  0.79224  Biso   1.000  O
  Ir1      1.0000 0.91399  0.00000  0.33456  Biso   1.000  Ir
  Ir2      1.0000 0.86000  0.00000  0.12235  Biso   1.000  Ir
  Ir3      1.0000 0.61196  0.00000  0.90441  Biso   1.000  Ir
  Ir4      1.0000 0.04933  0.00000  0.76021  Biso   1.000  Ir
  Ir5      1.0000 0.93696  0.00000  0.54632  Biso   1.000  Ir
