data_image0
_cell_length_a       7.61741
_cell_length_b       7.61741
_cell_length_c       22.0272
_cell_angle_alpha    90
_cell_angle_beta     90
_cell_angle_gamma    90

_symmetry_space_group_name_H-M    "P 1"
_symmetry_int_tables_number       1

loop_
  _symmetry_equiv_pos_as_xyz
  'x, y, z'

loop_
  _atom_site_label
  _atom_site_occupancy
  _atom_site_fract_x
  _atom_site_fract_y
  _atom_site_fract_z
  _atom_site_thermal_displace_type
  _atom_site_B_iso_or_equiv
  _atom_site_type_symbol
  O1       1.0000 0.00000  0.20717  0.21735  Biso   1.000  O
  O2       1.0000 0.00000  0.79283  0.21735  Biso   1.000  O
  O3       1.0000 0.79283  0.50000  0.46735  Biso   1.000  O
  O4       1.0000 0.20717  0.50000  0.46735  Biso   1.000  O
  O5       1.0000 0.00000  0.70717  0.03265  Biso   1.000  O
  O6       1.0000 0.00000  0.29283  0.03265  Biso   1.000  O
  O7       1.0000 0.70717  0.50000  0.28265  Biso   1.000  O
  O8       1.0000 0.29283  0.50000  0.28265  Biso   1.000  O
  O9       1.0000 0.50000  0.24156  0.19167  Biso   1.000  O
  O10      1.0000 0.50000  0.75844  0.19167  Biso   1.000  O
  O11      1.0000 0.75844  0.00000  0.44167  Biso   1.000  O
  O12      1.0000 0.24156  0.00000  0.44167  Biso   1.000  O
  O13      1.0000 0.50000  0.74156  0.05833  Biso   1.000  O
  O14      1.0000 0.50000  0.25844  0.05833  Biso   1.000  O
  O15      1.0000 0.74156  0.00000  0.30833  Biso   1.000  O
  O16      1.0000 0.25844  0.00000  0.30833  Biso   1.000  O
  O17      1.0000 0.50000  0.69942  0.38893  Biso   1.000  O
  O18      1.0000 0.50000  0.30058  0.38893  Biso   1.000  O
  O19      1.0000 0.80058  0.50000  0.13893  Biso   1.000  O
  O20      1.0000 0.19942  0.50000  0.13893  Biso   1.000  O
  O21      1.0000 0.00000  0.69942  0.36107  Biso   1.000  O
  O22      1.0000 0.00000  0.30058  0.36107  Biso   1.000  O
  O23      1.0000 0.19942  0.00000  0.11107  Biso   1.000  O
  O24      1.0000 0.80058  0.00000  0.11107  Biso   1.000  O
  O25      1.0000 0.50000  0.70717  0.71735  Biso   1.000  O
  O26      1.0000 0.50000  0.29283  0.71735  Biso   1.000  O
  O27      1.0000 0.29283  0.00000  0.96735  Biso   1.000  O
  O28      1.0000 0.70717  0.00000  0.96735  Biso   1.000  O
  O29      1.0000 0.50000  0.20717  0.53265  Biso   1.000  O
  O30      1.0000 0.50000  0.79283  0.53265  Biso   1.000  O
  O31      1.0000 0.20717  0.00000  0.78265  Biso   1.000  O
  O32      1.0000 0.79283  0.00000  0.78265  Biso   1.000  O
  O33      1.0000 0.00000  0.74156  0.69167  Biso   1.000  O
  O34      1.0000 0.00000  0.25844  0.69167  Biso   1.000  O
  O35      1.0000 0.25844  0.50000  0.94167  Biso   1.000  O
  O36      1.0000 0.74156  0.50000  0.94167  Biso   1.000  O
  O37      1.0000 0.00000  0.24156  0.55833  Biso   1.000  O
  O38      1.0000 0.00000  0.75844  0.55833  Biso   1.000  O
  O39      1.0000 0.24156  0.50000  0.80833  Biso   1.000  O
  O40      1.0000 0.75844  0.50000  0.80833  Biso   1.000  O
  O41      1.0000 0.00000  0.19942  0.88893  Biso   1.000  O
  O42      1.0000 0.00000  0.80058  0.88893  Biso   1.000  O
  O43      1.0000 0.30058  0.00000  0.63893  Biso   1.000  O
  O44      1.0000 0.69942  0.00000  0.63893  Biso   1.000  O
  O45      1.0000 0.50000  0.19942  0.86107  Biso   1.000  O
  O46      1.0000 0.50000  0.80058  0.86107  Biso   1.000  O
  O47      1.0000 0.69942  0.50000  0.61107  Biso   1.000  O
  O48      1.0000 0.30058  0.50000  0.61107  Biso   1.000  O
  Ir1      1.0000 0.00000  0.75000  0.12500  Biso   1.000  Ir
  Ir2      1.0000 0.00000  0.25000  0.12500  Biso   1.000  Ir
  Ir3      1.0000 0.25000  0.50000  0.37500  Biso   1.000  Ir
  Ir4      1.0000 0.75000  0.50000  0.37500  Biso   1.000  Ir
  Ir5      1.0000 0.50000  0.50000  0.18864  Biso   1.000  Ir
  Ir6      1.0000 0.50000  0.00000  0.43864  Biso   1.000  Ir
  Ir7      1.0000 0.50000  0.00000  0.06136  Biso   1.000  Ir
  Ir8      1.0000 0.00000  0.00000  0.31136  Biso   1.000  Ir
  Ir9      1.0000 0.50000  0.25000  0.62500  Biso   1.000  Ir
  Ir10     1.0000 0.50000  0.75000  0.62500  Biso   1.000  Ir
  Ir11     1.0000 0.75000  0.00000  0.87500  Biso   1.000  Ir
  Ir12     1.0000 0.25000  0.00000  0.87500  Biso   1.000  Ir
  Ir13     1.0000 0.00000  0.00000  0.68864  Biso   1.000  Ir
  Ir14     1.0000 0.00000  0.50000  0.93864  Biso   1.000  Ir
  Ir15     1.0000 0.00000  0.50000  0.56136  Biso   1.000  Ir
  Ir16     1.0000 0.50000  0.50000  0.81136  Biso   1.000  Ir
