data_image0
_cell_length_a       11.417
_cell_length_b       11.417
_cell_length_c       22.1902
_cell_angle_alpha    90
_cell_angle_beta     90
_cell_angle_gamma    120

_symmetry_space_group_name_H-M    "P 1"
_symmetry_int_tables_number       1

loop_
  _symmetry_equiv_pos_as_xyz
  'x, y, z'

loop_
  _atom_site_label
  _atom_site_occupancy
  _atom_site_fract_x
  _atom_site_fract_y
  _atom_site_fract_z
  _atom_site_thermal_displace_type
  _atom_site_B_iso_or_equiv
  _atom_site_type_symbol
  Ir1      1.0000 0.00000  0.00000  0.12361  Biso   1.000  Ir
  Ir2      1.0000 0.00000  0.00000  0.37639  Biso   1.000  Ir
  Ir3      1.0000 0.00000  0.00000  0.87639  Biso   1.000  Ir
  Ir4      1.0000 0.00000  0.00000  0.62361  Biso   1.000  Ir
  Ir5      1.0000 0.33333  0.66667  0.95894  Biso   1.000  Ir
  Ir6      1.0000 0.66667  0.33333  0.54106  Biso   1.000  Ir
  Ir7      1.0000 0.66667  0.33333  0.04106  Biso   1.000  Ir
  Ir8      1.0000 0.33333  0.66667  0.45894  Biso   1.000  Ir
  Ir9      1.0000 0.33333  0.66667  0.20677  Biso   1.000  Ir
  Ir10     1.0000 0.66667  0.33333  0.29323  Biso   1.000  Ir
  Ir11     1.0000 0.66667  0.33333  0.79323  Biso   1.000  Ir
  Ir12     1.0000 0.33333  0.66667  0.70677  Biso   1.000  Ir
  O1       1.0000 0.79475  0.66237  0.20669  Biso   1.000  O
  O2       1.0000 0.33763  0.13238  0.20669  Biso   1.000  O
  O3       1.0000 0.86762  0.20525  0.20669  Biso   1.000  O
  O4       1.0000 0.66237  0.79475  0.29331  Biso   1.000  O
  O5       1.0000 0.13238  0.33763  0.29331  Biso   1.000  O
  O6       1.0000 0.20525  0.86762  0.29331  Biso   1.000  O
  O7       1.0000 0.20525  0.33763  0.79331  Biso   1.000  O
  O8       1.0000 0.66237  0.86762  0.79331  Biso   1.000  O
  O9       1.0000 0.13238  0.79475  0.79331  Biso   1.000  O
  O10      1.0000 0.33763  0.20525  0.70669  Biso   1.000  O
  O11      1.0000 0.86762  0.66237  0.70669  Biso   1.000  O
  O12      1.0000 0.79475  0.13238  0.70669  Biso   1.000  O
  O13      1.0000 0.67098  0.84041  0.54041  Biso   1.000  O
  O14      1.0000 0.15959  0.83057  0.54041  Biso   1.000  O
  O15      1.0000 0.16943  0.32902  0.54041  Biso   1.000  O
  O16      1.0000 0.84041  0.67098  0.95959  Biso   1.000  O
  O17      1.0000 0.83057  0.15959  0.95959  Biso   1.000  O
  O18      1.0000 0.32902  0.16943  0.95959  Biso   1.000  O
  O19      1.0000 0.32902  0.15959  0.45959  Biso   1.000  O
  O20      1.0000 0.84041  0.16943  0.45959  Biso   1.000  O
  O21      1.0000 0.83057  0.67098  0.45959  Biso   1.000  O
  O22      1.0000 0.15959  0.32902  0.04041  Biso   1.000  O
  O23      1.0000 0.16943  0.84041  0.04041  Biso   1.000  O
  O24      1.0000 0.67098  0.83057  0.04041  Biso   1.000  O
  O25      1.0000 0.00824  0.52758  0.62146  Biso   1.000  O
  O26      1.0000 0.47242  0.48065  0.62146  Biso   1.000  O
  O27      1.0000 0.51935  0.99177  0.62146  Biso   1.000  O
  O28      1.0000 0.52758  0.00823  0.87854  Biso   1.000  O
  O29      1.0000 0.48065  0.47242  0.87854  Biso   1.000  O
  O30      1.0000 0.99176  0.51935  0.87854  Biso   1.000  O
  O31      1.0000 0.99176  0.47242  0.37854  Biso   1.000  O
  O32      1.0000 0.52758  0.51935  0.37854  Biso   1.000  O
  O33      1.0000 0.48065  0.00823  0.37854  Biso   1.000  O
  O34      1.0000 0.47242  0.99177  0.12146  Biso   1.000  O
  O35      1.0000 0.51935  0.52758  0.12146  Biso   1.000  O
  O36      1.0000 0.00823  0.48065  0.12146  Biso   1.000  O
