data_image0
_cell_length_a       8.21101
_cell_length_b       9.3838
_cell_length_c       18.9577
_cell_angle_alpha    95.8593
_cell_angle_beta     95.9984
_cell_angle_gamma    109.264

_symmetry_space_group_name_H-M    "P 1"
_symmetry_int_tables_number       1

loop_
  _symmetry_equiv_pos_as_xyz
  'x, y, z'

loop_
  _atom_site_label
  _atom_site_occupancy
  _atom_site_fract_x
  _atom_site_fract_y
  _atom_site_fract_z
  _atom_site_thermal_displace_type
  _atom_site_B_iso_or_equiv
  _atom_site_type_symbol
  Ir1      1.0000 0.38577  0.89378  0.11670  Biso   1.000  Ir
  Ir2      1.0000 0.61423  0.10622  0.88330  Biso   1.000  Ir
  Ir3      1.0000 0.25217  0.39824  0.13503  Biso   1.000  Ir
  Ir4      1.0000 0.74783  0.60176  0.86497  Biso   1.000  Ir
  Ir5      1.0000 0.98543  0.12154  0.36592  Biso   1.000  Ir
  Ir6      1.0000 0.01457  0.87846  0.63408  Biso   1.000  Ir
  Ir7      1.0000 0.15251  0.65332  0.38354  Biso   1.000  Ir
  Ir8      1.0000 0.84749  0.34668  0.61646  Biso   1.000  Ir
  O1       1.0000 0.99021  0.26221  0.04742  Biso   1.000  O
  O2       1.0000 0.00979  0.73779  0.95258  Biso   1.000  O
  O3       1.0000 0.62890  0.86964  0.06707  Biso   1.000  O
  O4       1.0000 0.37110  0.13036  0.93293  Biso   1.000  O
  O5       1.0000 0.57728  0.49432  0.13097  Biso   1.000  O
  O6       1.0000 0.42272  0.50568  0.86903  Biso   1.000  O
  O7       1.0000 0.17157  0.71860  0.13538  Biso   1.000  O
  O8       1.0000 0.82843  0.28140  0.86462  Biso   1.000  O
  O9       1.0000 0.34697  0.09499  0.14987  Biso   1.000  O
  O10      1.0000 0.65303  0.90501  0.85013  Biso   1.000  O
  O11      1.0000 0.17550  0.42883  0.22923  Biso   1.000  O
  O12      1.0000 0.82449  0.57117  0.77077  Biso   1.000  O
  O13      1.0000 0.74363  0.00269  0.27245  Biso   1.000  O
  O14      1.0000 0.25637  0.99731  0.72755  Biso   1.000  O
  O15      1.0000 0.05289  0.78095  0.33893  Biso   1.000  O
  O16      1.0000 0.94711  0.21905  0.66107  Biso   1.000  O
  O17      1.0000 0.31607  0.22531  0.36940  Biso   1.000  O
  O18      1.0000 0.68393  0.77469  0.63060  Biso   1.000  O
  O19      1.0000 0.90874  0.46549  0.38562  Biso   1.000  O
  O20      1.0000 0.09126  0.53451  0.61438  Biso   1.000  O
  O21      1.0000 0.48654  0.71320  0.42633  Biso   1.000  O
  O22      1.0000 0.51346  0.28680  0.57367  Biso   1.000  O
  O23      1.0000 0.88057  0.12801  0.45395  Biso   1.000  O
  O24      1.0000 0.11943  0.87199  0.54605  Biso   1.000  O
