data_image0
_cell_length_a       5.74686
_cell_length_b       9.52536
_cell_length_c       9.97922
_cell_angle_alpha    90
_cell_angle_beta     90
_cell_angle_gamma    90

_symmetry_space_group_name_H-M    "P 1"
_symmetry_int_tables_number       1

loop_
  _symmetry_equiv_pos_as_xyz
  'x, y, z'

loop_
  _atom_site_label
  _atom_site_occupancy
  _atom_site_fract_x
  _atom_site_fract_y
  _atom_site_fract_z
  _atom_site_thermal_displace_type
  _atom_site_B_iso_or_equiv
  _atom_site_type_symbol
  O1       1.0000 0.52115  0.66623  0.32248  Biso   1.000  O
  O2       1.0000 0.97885  0.33376  0.82248  Biso   1.000  O
  O3       1.0000 0.47885  0.16623  0.17752  Biso   1.000  O
  O4       1.0000 0.02115  0.83376  0.67752  Biso   1.000  O
  O5       1.0000 0.71820  0.57469  0.91695  Biso   1.000  O
  O6       1.0000 0.78180  0.42531  0.41695  Biso   1.000  O
  O7       1.0000 0.28180  0.07469  0.58305  Biso   1.000  O
  O8       1.0000 0.21820  0.92531  0.08305  Biso   1.000  O
  O9       1.0000 0.37028  0.51556  0.56251  Biso   1.000  O
  O10      1.0000 0.12972  0.48444  0.06251  Biso   1.000  O
  O11      1.0000 0.62972  0.01556  0.93749  Biso   1.000  O
  O12      1.0000 0.87028  0.98444  0.43749  Biso   1.000  O
  Ir1      1.0000 0.01227  0.50896  0.89448  Biso   1.000  Ir
  Ir2      1.0000 0.48773  0.49104  0.39448  Biso   1.000  Ir
  Ir3      1.0000 0.98773  0.00896  0.60552  Biso   1.000  Ir
  Ir4      1.0000 0.51227  0.99104  0.10552  Biso   1.000  Ir
