data_image0
_cell_length_a       14.1725
_cell_length_b       7.58396
_cell_length_c       6.00191
_cell_angle_alpha    90
_cell_angle_beta     98.3871
_cell_angle_gamma    90

_symmetry_space_group_name_H-M    "P 1"
_symmetry_int_tables_number       1

loop_
  _symmetry_equiv_pos_as_xyz
  'x, y, z'

loop_
  _atom_site_label
  _atom_site_occupancy
  _atom_site_fract_x
  _atom_site_fract_y
  _atom_site_fract_z
  _atom_site_thermal_displace_type
  _atom_site_B_iso_or_equiv
  _atom_site_type_symbol
  O1       1.0000 0.50000  0.76098  0.00000  Biso   1.000  O
  O2       1.0000 0.50000  0.23902  0.00000  Biso   1.000  O
  O3       1.0000 0.17778  0.00000  0.80476  Biso   1.000  O
  O4       1.0000 0.32222  0.50000  0.19523  Biso   1.000  O
  O5       1.0000 0.19239  0.50000  0.56096  Biso   1.000  O
  O6       1.0000 0.30761  0.00000  0.43904  Biso   1.000  O
  O7       1.0000 0.00000  0.26098  0.00000  Biso   1.000  O
  O8       1.0000 0.00000  0.73902  0.00000  Biso   1.000  O
  O9       1.0000 0.67778  0.50000  0.80476  Biso   1.000  O
  O10      1.0000 0.82222  0.00000  0.19523  Biso   1.000  O
  O11      1.0000 0.69239  0.00000  0.56096  Biso   1.000  O
  O12      1.0000 0.80761  0.50000  0.43904  Biso   1.000  O
  Ir1      1.0000 0.34089  0.00000  0.76935  Biso   1.000  Ir
  Ir2      1.0000 0.15911  0.50000  0.23065  Biso   1.000  Ir
  Ir3      1.0000 0.84089  0.50000  0.76935  Biso   1.000  Ir
  Ir4      1.0000 0.65911  0.00000  0.23065  Biso   1.000  Ir
