data_image0
_cell_length_a       5.09155
_cell_length_b       5.09321
_cell_length_c       5.09931
_cell_angle_alpha    101.598
_cell_angle_beta     101.64
_cell_angle_gamma    119.152

_symmetry_space_group_name_H-M    "P 1"
_symmetry_int_tables_number       1

loop_
  _symmetry_equiv_pos_as_xyz
  'x, y, z'

loop_
  _atom_site_label
  _atom_site_occupancy
  _atom_site_fract_x
  _atom_site_fract_y
  _atom_site_fract_z
  _atom_site_thermal_displace_type
  _atom_site_B_iso_or_equiv
  _atom_site_type_symbol
  Ir1      1.0000 0.17624  0.82461  0.00000  Biso   1.000  Ir
  Ir2      1.0000 0.99188  0.00889  0.50020  Biso   1.000  Ir
  O1       1.0000 0.38016  0.07142  0.75806  Biso   1.000  O
  O2       1.0000 0.08050  0.41513  0.75058  Biso   1.000  O
  O3       1.0000 0.78616  0.76137  0.74189  Biso   1.000  O
  O4       1.0000 0.23816  0.21385  0.25809  Biso   1.000  O
  O5       1.0000 0.58469  0.91928  0.24948  Biso   1.000  O
  O6       1.0000 0.92826  0.61979  0.24193  Biso   1.000  O
