data_image0
_cell_length_a       7.44499
_cell_length_b       12.7317
_cell_length_c       7.5302
_cell_angle_alpha    90
_cell_angle_beta     90
_cell_angle_gamma    90

_symmetry_space_group_name_H-M    "P 1"
_symmetry_int_tables_number       1

loop_
  _symmetry_equiv_pos_as_xyz
  'x, y, z'

loop_
  _atom_site_label
  _atom_site_occupancy
  _atom_site_fract_x
  _atom_site_fract_y
  _atom_site_fract_z
  _atom_site_thermal_displace_type
  _atom_site_B_iso_or_equiv
  _atom_site_type_symbol
  Ir1      1.0000 0.25000  0.25000  0.00000  Biso   1.000  Ir
  Ir2      1.0000 0.25000  0.25000  0.50000  Biso   1.000  Ir
  Ir3      1.0000 0.25000  0.75000  0.50000  Biso   1.000  Ir
  Ir4      1.0000 0.25000  0.75000  0.00000  Biso   1.000  Ir
  Ir5      1.0000 0.00000  0.00000  0.00000  Biso   1.000  Ir
  Ir6      1.0000 0.00000  0.00000  0.50000  Biso   1.000  Ir
  Ir7      1.0000 0.75000  0.75000  0.00000  Biso   1.000  Ir
  Ir8      1.0000 0.75000  0.75000  0.50000  Biso   1.000  Ir
  Ir9      1.0000 0.75000  0.25000  0.50000  Biso   1.000  Ir
  Ir10     1.0000 0.75000  0.25000  0.00000  Biso   1.000  Ir
  Ir11     1.0000 0.50000  0.50000  0.00000  Biso   1.000  Ir
  Ir12     1.0000 0.50000  0.50000  0.50000  Biso   1.000  Ir
  O1       1.0000 0.81018  0.10275  0.94536  Biso   1.000  O
  O2       1.0000 0.18982  0.89726  0.44536  Biso   1.000  O
  O3       1.0000 0.18982  0.10275  0.55464  Biso   1.000  O
  O4       1.0000 0.81018  0.89726  0.05464  Biso   1.000  O
  O5       1.0000 0.18982  0.89726  0.05464  Biso   1.000  O
  O6       1.0000 0.81018  0.10275  0.55464  Biso   1.000  O
  O7       1.0000 0.81018  0.89726  0.44536  Biso   1.000  O
  O8       1.0000 0.18982  0.10275  0.94536  Biso   1.000  O
  O9       1.0000 0.50000  0.21682  0.94106  Biso   1.000  O
  O10      1.0000 0.50000  0.78318  0.44106  Biso   1.000  O
  O11      1.0000 0.50000  0.21682  0.55894  Biso   1.000  O
  O12      1.0000 0.50000  0.78318  0.05894  Biso   1.000  O
  O13      1.0000 0.70177  0.21046  0.25000  Biso   1.000  O
  O14      1.0000 0.29823  0.78954  0.75000  Biso   1.000  O
  O15      1.0000 0.29823  0.21046  0.25000  Biso   1.000  O
  O16      1.0000 0.70177  0.78954  0.75000  Biso   1.000  O
  O17      1.0000 0.50000  0.54785  0.25000  Biso   1.000  O
  O18      1.0000 0.50000  0.45215  0.75000  Biso   1.000  O
  O19      1.0000 0.31018  0.60274  0.94536  Biso   1.000  O
  O20      1.0000 0.68982  0.39725  0.44536  Biso   1.000  O
  O21      1.0000 0.68982  0.60274  0.55464  Biso   1.000  O
  O22      1.0000 0.31018  0.39725  0.05464  Biso   1.000  O
  O23      1.0000 0.68982  0.39725  0.05464  Biso   1.000  O
  O24      1.0000 0.31018  0.60274  0.55464  Biso   1.000  O
  O25      1.0000 0.31018  0.39725  0.44536  Biso   1.000  O
  O26      1.0000 0.68982  0.60274  0.94536  Biso   1.000  O
  O27      1.0000 0.00000  0.71682  0.94106  Biso   1.000  O
  O28      1.0000 0.00000  0.28318  0.44106  Biso   1.000  O
  O29      1.0000 0.00000  0.71682  0.55894  Biso   1.000  O
  O30      1.0000 0.00000  0.28318  0.05894  Biso   1.000  O
  O31      1.0000 0.20177  0.71046  0.25000  Biso   1.000  O
  O32      1.0000 0.79823  0.28954  0.75000  Biso   1.000  O
  O33      1.0000 0.79823  0.71046  0.25000  Biso   1.000  O
  O34      1.0000 0.20177  0.28954  0.75000  Biso   1.000  O
  O35      1.0000 0.00000  0.04785  0.25000  Biso   1.000  O
  O36      1.0000 0.00000  0.95215  0.75000  Biso   1.000  O
