data_image0
_cell_length_a       5.87567
_cell_length_b       7.97223
_cell_length_c       6.2494
_cell_angle_alpha    90
_cell_angle_beta     90
_cell_angle_gamma    90

_symmetry_space_group_name_H-M    "P 1"
_symmetry_int_tables_number       1

loop_
  _symmetry_equiv_pos_as_xyz
  'x, y, z'

loop_
  _atom_site_label
  _atom_site_occupancy
  _atom_site_fract_x
  _atom_site_fract_y
  _atom_site_fract_z
  _atom_site_thermal_displace_type
  _atom_site_B_iso_or_equiv
  _atom_site_type_symbol
  Ir1      1.0000 0.71118  0.41306  0.00000  Biso   1.000  Ir
  Ir2      1.0000 0.28882  0.58694  0.00000  Biso   1.000  Ir
  Ir3      1.0000 0.78882  0.91306  0.50000  Biso   1.000  Ir
  Ir4      1.0000 0.21118  0.08694  0.50000  Biso   1.000  Ir
  Ir5      1.0000 0.00000  0.00000  0.00000  Biso   1.000  Ir
  Ir6      1.0000 0.50000  0.50000  0.50000  Biso   1.000  Ir
  O1       1.0000 0.00000  0.50000  0.00000  Biso   1.000  O
  O2       1.0000 0.50000  0.00000  0.50000  Biso   1.000  O
  O3       1.0000 0.39737  0.35808  0.00000  Biso   1.000  O
  O4       1.0000 0.60263  0.64192  0.00000  Biso   1.000  O
  O5       1.0000 0.10263  0.85808  0.50000  Biso   1.000  O
  O6       1.0000 0.89737  0.14192  0.50000  Biso   1.000  O
  O7       1.0000 0.81770  0.19482  0.00000  Biso   1.000  O
  O8       1.0000 0.18230  0.80518  0.00000  Biso   1.000  O
  O9       1.0000 0.68230  0.69482  0.50000  Biso   1.000  O
  O10      1.0000 0.31770  0.30518  0.50000  Biso   1.000  O
  O11      1.0000 0.20654  0.08998  0.19865  Biso   1.000  O
  O12      1.0000 0.79346  0.91002  0.19865  Biso   1.000  O
  O13      1.0000 0.29346  0.58998  0.30135  Biso   1.000  O
  O14      1.0000 0.70654  0.41002  0.30135  Biso   1.000  O
  O15      1.0000 0.79346  0.91002  0.80135  Biso   1.000  O
  O16      1.0000 0.20654  0.08998  0.80135  Biso   1.000  O
  O17      1.0000 0.70654  0.41002  0.69865  Biso   1.000  O
  O18      1.0000 0.29346  0.58998  0.69865  Biso   1.000  O
