data_image0
_cell_length_a       10.3923
_cell_length_b       10.3923
_cell_length_c       26.3642
_cell_angle_alpha    90
_cell_angle_beta     90
_cell_angle_gamma    120

_symmetry_space_group_name_H-M    "P 1"
_symmetry_int_tables_number       1

loop_
  _symmetry_equiv_pos_as_xyz
  'x, y, z'

loop_
  _atom_site_label
  _atom_site_occupancy
  _atom_site_fract_x
  _atom_site_fract_y
  _atom_site_fract_z
  _atom_site_thermal_displace_type
  _atom_site_B_iso_or_equiv
  _atom_site_type_symbol
  Ir1      1.0000 0.00728  0.66667  0.16667  Biso   1.000  Ir
  Ir2      1.0000 0.33333  0.34061  0.16667  Biso   1.000  Ir
  Ir3      1.0000 0.65939  0.99272  0.16667  Biso   1.000  Ir
  Ir4      1.0000 0.98527  0.33333  0.33333  Biso   1.000  Ir
  Ir5      1.0000 0.66667  0.65193  0.33333  Biso   1.000  Ir
  Ir6      1.0000 0.34807  0.01473  0.33333  Biso   1.000  Ir
  Ir7      1.0000 0.67394  0.00000  0.50000  Biso   1.000  Ir
  Ir8      1.0000 0.00000  0.67394  0.50000  Biso   1.000  Ir
  Ir9      1.0000 0.32606  0.32606  0.50000  Biso   1.000  Ir
  Ir10     1.0000 0.65193  0.66667  0.66667  Biso   1.000  Ir
  Ir11     1.0000 0.33333  0.98527  0.66667  Biso   1.000  Ir
  Ir12     1.0000 0.01473  0.34807  0.66667  Biso   1.000  Ir
  Ir13     1.0000 0.34061  0.33333  0.83333  Biso   1.000  Ir
  Ir14     1.0000 0.66667  0.00728  0.83333  Biso   1.000  Ir
  Ir15     1.0000 0.99272  0.65939  0.83333  Biso   1.000  Ir
  Ir16     1.0000 0.31860  0.00000  0.00000  Biso   1.000  Ir
  Ir17     1.0000 0.00000  0.31860  0.00000  Biso   1.000  Ir
  Ir18     1.0000 0.68140  0.68140  0.00000  Biso   1.000  Ir
  O1       1.0000 0.66667  0.33333  0.15383  Biso   1.000  O
  O2       1.0000 0.00000  0.00000  0.17950  Biso   1.000  O
  O3       1.0000 0.30551  0.94251  0.11049  Biso   1.000  O
  O4       1.0000 0.05749  0.36300  0.11049  Biso   1.000  O
  O5       1.0000 0.63700  0.69449  0.11049  Biso   1.000  O
  O6       1.0000 0.60917  0.63884  0.22285  Biso   1.000  O
  O7       1.0000 0.02967  0.39083  0.22285  Biso   1.000  O
  O8       1.0000 0.36116  0.97033  0.22285  Biso   1.000  O
  O9       1.0000 0.91583  0.58673  0.05765  Biso   1.000  O
  O10      1.0000 0.41327  0.32910  0.05765  Biso   1.000  O
  O11      1.0000 0.67090  0.08417  0.05765  Biso   1.000  O
  O12      1.0000 0.25340  0.24916  0.27568  Biso   1.000  O
  O13      1.0000 0.99577  0.74660  0.27568  Biso   1.000  O
  O14      1.0000 0.75084  0.00423  0.27568  Biso   1.000  O
  O15      1.0000 0.00000  0.00000  0.05675  Biso   1.000  O
  O16      1.0000 0.66667  0.33333  0.27659  Biso   1.000  O
  O17      1.0000 0.33333  0.66667  0.03274  Biso   1.000  O
  O18      1.0000 0.33333  0.66667  0.30060  Biso   1.000  O
  O19      1.0000 0.33333  0.66667  0.48717  Biso   1.000  O
  O20      1.0000 0.66667  0.33333  0.51283  Biso   1.000  O
  O21      1.0000 0.97217  0.27584  0.44382  Biso   1.000  O
  O22      1.0000 0.72416  0.69633  0.44382  Biso   1.000  O
  O23      1.0000 0.30367  0.02783  0.44382  Biso   1.000  O
  O24      1.0000 0.27584  0.97217  0.55618  Biso   1.000  O
  O25      1.0000 0.69633  0.72416  0.55618  Biso   1.000  O
  O26      1.0000 0.02783  0.30367  0.55618  Biso   1.000  O
  O27      1.0000 0.58250  0.92006  0.39098  Biso   1.000  O
  O28      1.0000 0.07994  0.66243  0.39098  Biso   1.000  O
  O29      1.0000 0.33757  0.41750  0.39098  Biso   1.000  O
  O30      1.0000 0.92006  0.58250  0.60902  Biso   1.000  O
  O31      1.0000 0.66243  0.07994  0.60902  Biso   1.000  O
  O32      1.0000 0.41750  0.33757  0.60902  Biso   1.000  O
  O33      1.0000 0.66667  0.33333  0.39008  Biso   1.000  O
  O34      1.0000 0.33333  0.66667  0.60992  Biso   1.000  O
  O35      1.0000 0.00000  0.00000  0.36607  Biso   1.000  O
  O36      1.0000 0.00000  0.00000  0.63393  Biso   1.000  O
  O37      1.0000 0.00000  0.00000  0.82050  Biso   1.000  O
  O38      1.0000 0.33333  0.66667  0.84616  Biso   1.000  O
  O39      1.0000 0.63884  0.60917  0.77715  Biso   1.000  O
  O40      1.0000 0.39083  0.02967  0.77715  Biso   1.000  O
  O41      1.0000 0.97033  0.36116  0.77715  Biso   1.000  O
  O42      1.0000 0.94251  0.30551  0.88951  Biso   1.000  O
  O43      1.0000 0.36300  0.05749  0.88951  Biso   1.000  O
  O44      1.0000 0.69449  0.63700  0.88951  Biso   1.000  O
  O45      1.0000 0.24916  0.25340  0.72432  Biso   1.000  O
  O46      1.0000 0.74660  0.99577  0.72432  Biso   1.000  O
  O47      1.0000 0.00423  0.75084  0.72432  Biso   1.000  O
  O48      1.0000 0.58673  0.91583  0.94235  Biso   1.000  O
  O49      1.0000 0.32910  0.41327  0.94235  Biso   1.000  O
  O50      1.0000 0.08417  0.67090  0.94235  Biso   1.000  O
  O51      1.0000 0.33333  0.66667  0.72341  Biso   1.000  O
  O52      1.0000 0.00000  0.00000  0.94325  Biso   1.000  O
  O53      1.0000 0.66667  0.33333  0.69940  Biso   1.000  O
  O54      1.0000 0.66667  0.33333  0.96726  Biso   1.000  O
