data_image0
_cell_length_a       16.0659
_cell_length_b       8.70572
_cell_length_c       5.04728
_cell_angle_alpha    90
_cell_angle_beta     96.3544
_cell_angle_gamma    90

_symmetry_space_group_name_H-M    "P 1"
_symmetry_int_tables_number       1

loop_
  _symmetry_equiv_pos_as_xyz
  'x, y, z'

loop_
  _atom_site_label
  _atom_site_occupancy
  _atom_site_fract_x
  _atom_site_fract_y
  _atom_site_fract_z
  _atom_site_thermal_displace_type
  _atom_site_B_iso_or_equiv
  _atom_site_type_symbol
  O1       1.0000 0.30289  0.19861  0.77600  Biso   1.000  O
  O2       1.0000 0.30289  0.80139  0.27600  Biso   1.000  O
  O3       1.0000 0.12599  0.00116  0.93261  Biso   1.000  O
  O4       1.0000 0.12599  0.99884  0.43260  Biso   1.000  O
  O5       1.0000 0.40037  0.12438  0.36668  Biso   1.000  O
  O6       1.0000 0.40037  0.87562  0.86668  Biso   1.000  O
  O7       1.0000 0.08152  0.62432  0.11964  Biso   1.000  O
  O8       1.0000 0.08152  0.37568  0.61964  Biso   1.000  O
  O9       1.0000 0.17896  0.69860  0.71019  Biso   1.000  O
  O10      1.0000 0.17896  0.30140  0.21019  Biso   1.000  O
  O11      1.0000 0.35585  0.50117  0.55361  Biso   1.000  O
  O12      1.0000 0.35585  0.49883  0.05361  Biso   1.000  O
  O13      1.0000 0.80288  0.69861  0.77600  Biso   1.000  O
  O14      1.0000 0.80288  0.30139  0.27600  Biso   1.000  O
  O15      1.0000 0.62599  0.50116  0.93261  Biso   1.000  O
  O16      1.0000 0.62599  0.49884  0.43260  Biso   1.000  O
  O17      1.0000 0.90038  0.62438  0.36668  Biso   1.000  O
  O18      1.0000 0.90037  0.37562  0.86668  Biso   1.000  O
  O19      1.0000 0.58151  0.12432  0.11964  Biso   1.000  O
  O20      1.0000 0.58152  0.87568  0.61964  Biso   1.000  O
  O21      1.0000 0.67896  0.19860  0.71019  Biso   1.000  O
  O22      1.0000 0.67896  0.80140  0.21019  Biso   1.000  O
  O23      1.0000 0.85585  0.00117  0.55361  Biso   1.000  O
  O24      1.0000 0.85585  0.99883  0.05361  Biso   1.000  O
  Ir1      1.0000 0.21541  0.05868  0.23958  Biso   1.000  Ir
  Ir2      1.0000 0.21541  0.94131  0.73958  Biso   1.000  Ir
  Ir3      1.0000 0.26635  0.55866  0.24659  Biso   1.000  Ir
  Ir4      1.0000 0.26635  0.44134  0.74659  Biso   1.000  Ir
  Ir5      1.0000 0.71541  0.55868  0.23958  Biso   1.000  Ir
  Ir6      1.0000 0.71542  0.44131  0.73958  Biso   1.000  Ir
  Ir7      1.0000 0.76635  0.05866  0.24659  Biso   1.000  Ir
  Ir8      1.0000 0.76635  0.94134  0.74659  Biso   1.000  Ir
