data_image0
_cell_length_a       4.85183
_cell_length_b       15.961
_cell_length_c       10.835
_cell_angle_alpha    90
_cell_angle_beta     102.821
_cell_angle_gamma    90

_symmetry_space_group_name_H-M    "P 1"
_symmetry_int_tables_number       1

loop_
  _symmetry_equiv_pos_as_xyz
  'x, y, z'

loop_
  _atom_site_label
  _atom_site_occupancy
  _atom_site_fract_x
  _atom_site_fract_y
  _atom_site_fract_z
  _atom_site_thermal_displace_type
  _atom_site_B_iso_or_equiv
  _atom_site_type_symbol
  O1       1.0000 0.33854  0.85539  0.15052  Biso   1.000  O
  O2       1.0000 0.66146  0.35539  0.84948  Biso   1.000  O
  O3       1.0000 0.70365  0.52217  0.02805  Biso   1.000  O
  O4       1.0000 0.29635  0.02217  0.97195  Biso   1.000  O
  O5       1.0000 0.09706  0.27780  0.67058  Biso   1.000  O
  O6       1.0000 0.90294  0.77780  0.32942  Biso   1.000  O
  O7       1.0000 0.80176  0.27409  0.20237  Biso   1.000  O
  O8       1.0000 0.19824  0.77409  0.79763  Biso   1.000  O
  O9       1.0000 0.42290  0.98774  0.36042  Biso   1.000  O
  O10      1.0000 0.57710  0.48774  0.63958  Biso   1.000  O
  O11      1.0000 0.22482  0.28223  0.01600  Biso   1.000  O
  O12      1.0000 0.77518  0.78223  0.98400  Biso   1.000  O
  O13      1.0000 0.64807  0.91355  0.78228  Biso   1.000  O
  O14      1.0000 0.35193  0.41355  0.21772  Biso   1.000  O
  O15      1.0000 0.99574  0.63391  0.57568  Biso   1.000  O
  O16      1.0000 0.00426  0.13391  0.42432  Biso   1.000  O
  O17      1.0000 0.30938  0.13903  0.20093  Biso   1.000  O
  O18      1.0000 0.69062  0.63903  0.79907  Biso   1.000  O
  O19      1.0000 0.09265  0.06319  0.72780  Biso   1.000  O
  O20      1.0000 0.90735  0.56319  0.27220  Biso   1.000  O
  O21      1.0000 0.46133  0.54270  0.41019  Biso   1.000  O
  O22      1.0000 0.53867  0.04270  0.58981  Biso   1.000  O
  O23      1.0000 0.54750  0.26361  0.42667  Biso   1.000  O
  O24      1.0000 0.45250  0.76361  0.57333  Biso   1.000  O
  O25      1.0000 0.64394  0.17331  0.84230  Biso   1.000  O
  O26      1.0000 0.35606  0.67331  0.15770  Biso   1.000  O
  O27      1.0000 0.15271  0.46480  0.82788  Biso   1.000  O
  O28      1.0000 0.84728  0.96480  0.17212  Biso   1.000  O
  O29      1.0000 0.01771  0.39944  0.43898  Biso   1.000  O
  O30      1.0000 0.98229  0.89944  0.56102  Biso   1.000  O
  Ir1      1.0000 0.65528  0.50214  0.83440  Biso   1.000  Ir
  Ir2      1.0000 0.34472  0.00214  0.16560  Biso   1.000  Ir
  Ir3      1.0000 0.79832  0.76613  0.69853  Biso   1.000  Ir
  Ir4      1.0000 0.20168  0.26613  0.30147  Biso   1.000  Ir
  Ir5      1.0000 0.00260  0.51816  0.50137  Biso   1.000  Ir
  Ir6      1.0000 0.99740  0.01816  0.49863  Biso   1.000  Ir
  Ir7      1.0000 0.83980  0.78233  0.15696  Biso   1.000  Ir
  Ir8      1.0000 0.16020  0.28233  0.84304  Biso   1.000  Ir
  Ir9      1.0000 0.61456  0.04227  0.80083  Biso   1.000  Ir
  Ir10     1.0000 0.38544  0.54227  0.19917  Biso   1.000  Ir
