data_image0
_cell_length_a       22.491
_cell_length_b       22.491
_cell_length_c       3.0457
_cell_angle_alpha    90
_cell_angle_beta     90
_cell_angle_gamma    120

_symmetry_space_group_name_H-M    "P 1"
_symmetry_int_tables_number       1

loop_
  _symmetry_equiv_pos_as_xyz
  'x, y, z'

loop_
  _atom_site_label
  _atom_site_occupancy
  _atom_site_fract_x
  _atom_site_fract_y
  _atom_site_fract_z
  _atom_site_thermal_displace_type
  _atom_site_B_iso_or_equiv
  _atom_site_type_symbol
  Ir1      1.0000 0.66667  0.33333  0.33333  Biso   1.000  Ir
  Ir2      1.0000 0.83333  0.16667  0.66667  Biso   1.000  Ir
  Ir3      1.0000 0.83333  0.66667  0.66667  Biso   1.000  Ir
  Ir4      1.0000 0.00000  0.50000  0.00000  Biso   1.000  Ir
  Ir5      1.0000 0.33333  0.66667  0.66667  Biso   1.000  Ir
  Ir6      1.0000 0.50000  0.50000  0.00000  Biso   1.000  Ir
  Ir7      1.0000 0.50000  0.00000  0.00000  Biso   1.000  Ir
  Ir8      1.0000 0.66667  0.83333  0.33333  Biso   1.000  Ir
  Ir9      1.0000 0.00000  0.00000  0.00000  Biso   1.000  Ir
  Ir10     1.0000 0.16667  0.83333  0.33333  Biso   1.000  Ir
  Ir11     1.0000 0.16667  0.33333  0.33333  Biso   1.000  Ir
  Ir12     1.0000 0.33333  0.16667  0.66667  Biso   1.000  Ir
  O1       1.0000 0.16659  0.58330  0.33658  Biso   1.000  O
  O2       1.0000 0.75004  0.24996  0.00324  Biso   1.000  O
  O3       1.0000 0.75004  0.50007  0.00324  Biso   1.000  O
  O4       1.0000 0.83341  0.41670  0.66342  Biso   1.000  O
  O5       1.0000 0.91663  0.83326  0.33009  Biso   1.000  O
  O6       1.0000 0.91663  0.08337  0.33009  Biso   1.000  O
  O7       1.0000 0.08295  0.41629  0.66667  Biso   1.000  O
  O8       1.0000 0.91705  0.33333  0.33333  Biso   1.000  O
  O9       1.0000 0.00000  0.25038  0.00000  Biso   1.000  O
  O10      1.0000 0.91705  0.58371  0.33333  Biso   1.000  O
  O11      1.0000 0.08295  0.66667  0.66667  Biso   1.000  O
  O12      1.0000 0.00000  0.74962  0.00000  Biso   1.000  O
  O13      1.0000 0.83326  0.91663  0.66991  Biso   1.000  O
  O14      1.0000 0.41670  0.58330  0.33658  Biso   1.000  O
  O15      1.0000 0.41670  0.83341  0.33658  Biso   1.000  O
  O16      1.0000 0.50007  0.75004  0.99676  Biso   1.000  O
  O17      1.0000 0.58330  0.16659  0.66342  Biso   1.000  O
  O18      1.0000 0.58330  0.41670  0.66342  Biso   1.000  O
  O19      1.0000 0.74962  0.74962  0.00000  Biso   1.000  O
  O20      1.0000 0.58371  0.66667  0.66667  Biso   1.000  O
  O21      1.0000 0.66667  0.58371  0.33333  Biso   1.000  O
  O22      1.0000 0.58371  0.91705  0.66667  Biso   1.000  O
  O23      1.0000 0.74962  0.00000  0.00000  Biso   1.000  O
  O24      1.0000 0.66667  0.08295  0.33333  Biso   1.000  O
  O25      1.0000 0.49993  0.24996  0.00324  Biso   1.000  O
  O26      1.0000 0.08337  0.91663  0.66991  Biso   1.000  O
  O27      1.0000 0.08337  0.16674  0.66991  Biso   1.000  O
  O28      1.0000 0.16674  0.08337  0.33009  Biso   1.000  O
  O29      1.0000 0.24996  0.49993  0.99676  Biso   1.000  O
  O30      1.0000 0.24996  0.75004  0.99676  Biso   1.000  O
  O31      1.0000 0.41629  0.08295  0.33333  Biso   1.000  O
  O32      1.0000 0.25038  0.00000  0.00000  Biso   1.000  O
  O33      1.0000 0.33333  0.91705  0.66667  Biso   1.000  O
  O34      1.0000 0.25038  0.25038  0.00000  Biso   1.000  O
  O35      1.0000 0.41629  0.33333  0.33333  Biso   1.000  O
  O36      1.0000 0.33333  0.41629  0.66667  Biso   1.000  O
