data_image0
_cell_length_a       5.85211
_cell_length_b       5.90186
_cell_length_c       5.9662
_cell_angle_alpha    80.1779
_cell_angle_beta     70.7068
_cell_angle_gamma    75.7732

_symmetry_space_group_name_H-M    "P 1"
_symmetry_int_tables_number       1

loop_
  _symmetry_equiv_pos_as_xyz
  'x, y, z'

loop_
  _atom_site_label
  _atom_site_occupancy
  _atom_site_fract_x
  _atom_site_fract_y
  _atom_site_fract_z
  _atom_site_thermal_displace_type
  _atom_site_B_iso_or_equiv
  _atom_site_type_symbol
  O1       1.0000 0.22184  0.98750  0.98389  Biso   1.000  O
  O2       1.0000 0.77816  0.01249  0.01611  Biso   1.000  O
  O3       1.0000 0.22250  0.41224  0.90483  Biso   1.000  O
  O4       1.0000 0.77750  0.58776  0.09517  Biso   1.000  O
  O5       1.0000 0.81086  0.14667  0.59013  Biso   1.000  O
  O6       1.0000 0.18914  0.85333  0.40987  Biso   1.000  O
  Ir1      1.0000 0.65952  0.68514  0.62773  Biso   1.000  Ir
  Ir2      1.0000 0.34048  0.31486  0.37227  Biso   1.000  Ir
