data_image0
_cell_length_a       9.95705
_cell_length_b       9.95705
_cell_length_c       9.4254
_cell_angle_alpha    90
_cell_angle_beta     90
_cell_angle_gamma    120

_symmetry_space_group_name_H-M    "P 1"
_symmetry_int_tables_number       1

loop_
  _symmetry_equiv_pos_as_xyz
  'x, y, z'

loop_
  _atom_site_label
  _atom_site_occupancy
  _atom_site_fract_x
  _atom_site_fract_y
  _atom_site_fract_z
  _atom_site_thermal_displace_type
  _atom_site_B_iso_or_equiv
  _atom_site_type_symbol
  O1       1.0000 0.50000  0.00000  0.70939  Biso   1.000  O
  O2       1.0000 0.00000  0.50000  0.70939  Biso   1.000  O
  O3       1.0000 0.50000  0.50000  0.70939  Biso   1.000  O
  O4       1.0000 0.00000  0.50000  0.29061  Biso   1.000  O
  O5       1.0000 0.50000  0.00000  0.29061  Biso   1.000  O
  O6       1.0000 0.50000  0.50000  0.29061  Biso   1.000  O
  O7       1.0000 0.83339  0.66678  0.37832  Biso   1.000  O
  O8       1.0000 0.33322  0.16661  0.37832  Biso   1.000  O
  O9       1.0000 0.83339  0.16661  0.37832  Biso   1.000  O
  O10      1.0000 0.16661  0.33322  0.37832  Biso   1.000  O
  O11      1.0000 0.66678  0.83339  0.37832  Biso   1.000  O
  O12      1.0000 0.16661  0.83339  0.37832  Biso   1.000  O
  O13      1.0000 0.66678  0.83339  0.62168  Biso   1.000  O
  O14      1.0000 0.16661  0.33322  0.62168  Biso   1.000  O
  O15      1.0000 0.16661  0.83339  0.62168  Biso   1.000  O
  O16      1.0000 0.33322  0.16661  0.62168  Biso   1.000  O
  O17      1.0000 0.83339  0.66678  0.62168  Biso   1.000  O
  O18      1.0000 0.83339  0.16661  0.62168  Biso   1.000  O
  Ir1      1.0000 0.33333  0.66667  0.36550  Biso   1.000  Ir
  Ir2      1.0000 0.66667  0.33333  0.36550  Biso   1.000  Ir
  Ir3      1.0000 0.66667  0.33333  0.63450  Biso   1.000  Ir
  Ir4      1.0000 0.33333  0.66667  0.63450  Biso   1.000  Ir
  Ir5      1.0000 0.00000  0.00000  0.71380  Biso   1.000  Ir
  Ir6      1.0000 0.00000  0.00000  0.28620  Biso   1.000  Ir
