data_image0
_cell_length_a       6.09277
_cell_length_b       10.3987
_cell_length_c       18.0408
_cell_angle_alpha    90
_cell_angle_beta     97.9085
_cell_angle_gamma    90

_symmetry_space_group_name_H-M    "P 1"
_symmetry_int_tables_number       1

loop_
  _symmetry_equiv_pos_as_xyz
  'x, y, z'

loop_
  _atom_site_label
  _atom_site_occupancy
  _atom_site_fract_x
  _atom_site_fract_y
  _atom_site_fract_z
  _atom_site_thermal_displace_type
  _atom_site_B_iso_or_equiv
  _atom_site_type_symbol
  O1       1.0000 0.67032  0.32730  0.92392  Biso   1.000  O
  O2       1.0000 0.32968  0.32730  0.07608  Biso   1.000  O
  O3       1.0000 0.32968  0.67270  0.07608  Biso   1.000  O
  O4       1.0000 0.67032  0.67270  0.92392  Biso   1.000  O
  O5       1.0000 0.64954  0.00000  0.91926  Biso   1.000  O
  O6       1.0000 0.35046  0.00000  0.08074  Biso   1.000  O
  O7       1.0000 0.03085  0.00000  0.74556  Biso   1.000  O
  O8       1.0000 0.96915  0.00000  0.25444  Biso   1.000  O
  O9       1.0000 0.51237  0.17337  0.74200  Biso   1.000  O
  O10      1.0000 0.48763  0.17337  0.25800  Biso   1.000  O
  O11      1.0000 0.48763  0.82663  0.25800  Biso   1.000  O
  O12      1.0000 0.51237  0.82663  0.74200  Biso   1.000  O
  O13      1.0000 0.35279  0.32691  0.58929  Biso   1.000  O
  O14      1.0000 0.64721  0.32691  0.41071  Biso   1.000  O
  O15      1.0000 0.64721  0.67309  0.41071  Biso   1.000  O
  O16      1.0000 0.35279  0.67309  0.58929  Biso   1.000  O
  O17      1.0000 0.33493  0.00000  0.58567  Biso   1.000  O
  O18      1.0000 0.66507  0.00000  0.41433  Biso   1.000  O
  O19      1.0000 0.17032  0.82730  0.92392  Biso   1.000  O
  O20      1.0000 0.82968  0.82730  0.07608  Biso   1.000  O
  O21      1.0000 0.82968  0.17270  0.07608  Biso   1.000  O
  O22      1.0000 0.17032  0.17270  0.92392  Biso   1.000  O
  O23      1.0000 0.14954  0.50000  0.91926  Biso   1.000  O
  O24      1.0000 0.85046  0.50000  0.08074  Biso   1.000  O
  O25      1.0000 0.53085  0.50000  0.74556  Biso   1.000  O
  O26      1.0000 0.46915  0.50000  0.25444  Biso   1.000  O
  O27      1.0000 0.01237  0.67337  0.74200  Biso   1.000  O
  O28      1.0000 0.98763  0.67337  0.25800  Biso   1.000  O
  O29      1.0000 0.98763  0.32663  0.25800  Biso   1.000  O
  O30      1.0000 0.01237  0.32663  0.74200  Biso   1.000  O
  O31      1.0000 0.85279  0.82691  0.58929  Biso   1.000  O
  O32      1.0000 0.14721  0.82691  0.41071  Biso   1.000  O
  O33      1.0000 0.14721  0.17309  0.41071  Biso   1.000  O
  O34      1.0000 0.85279  0.17309  0.58929  Biso   1.000  O
  O35      1.0000 0.83493  0.50000  0.58567  Biso   1.000  O
  O36      1.0000 0.16507  0.50000  0.41433  Biso   1.000  O
  Ir1      1.0000 0.50000  0.16009  0.00000  Biso   1.000  Ir
  Ir2      1.0000 0.50000  0.83992  0.00000  Biso   1.000  Ir
  Ir3      1.0000 0.18285  0.16038  0.66558  Biso   1.000  Ir
  Ir4      1.0000 0.81715  0.16038  0.33442  Biso   1.000  Ir
  Ir5      1.0000 0.81715  0.83962  0.33442  Biso   1.000  Ir
  Ir6      1.0000 0.18285  0.83962  0.66558  Biso   1.000  Ir
  Ir7      1.0000 0.00000  0.66009  0.00000  Biso   1.000  Ir
  Ir8      1.0000 0.00000  0.33992  0.00000  Biso   1.000  Ir
  Ir9      1.0000 0.68285  0.66038  0.66558  Biso   1.000  Ir
  Ir10     1.0000 0.31715  0.66038  0.33442  Biso   1.000  Ir
  Ir11     1.0000 0.31715  0.33962  0.33442  Biso   1.000  Ir
  Ir12     1.0000 0.68285  0.33962  0.66558  Biso   1.000  Ir
