data_image0
_cell_length_a       7.24227
_cell_length_b       10.1236
_cell_length_c       21.162
_cell_angle_alpha    90
_cell_angle_beta     90
_cell_angle_gamma    90

_symmetry_space_group_name_H-M    "P 1"
_symmetry_int_tables_number       1

loop_
  _symmetry_equiv_pos_as_xyz
  'x, y, z'

loop_
  _atom_site_label
  _atom_site_occupancy
  _atom_site_fract_x
  _atom_site_fract_y
  _atom_site_fract_z
  _atom_site_thermal_displace_type
  _atom_site_B_iso_or_equiv
  _atom_site_type_symbol
  O1       1.0000 0.71776  0.00000  0.00000  Biso   1.000  O
  O2       1.0000 0.28224  0.00000  0.00000  Biso   1.000  O
  O3       1.0000 0.03224  0.75000  0.25000  Biso   1.000  O
  O4       1.0000 0.46776  0.75000  0.25000  Biso   1.000  O
  O5       1.0000 0.23357  0.98387  0.33807  Biso   1.000  O
  O6       1.0000 0.76643  0.01613  0.33807  Biso   1.000  O
  O7       1.0000 0.26643  0.98387  0.16193  Biso   1.000  O
  O8       1.0000 0.73357  0.01613  0.16193  Biso   1.000  O
  O9       1.0000 0.01643  0.76613  0.41193  Biso   1.000  O
  O10      1.0000 0.98357  0.23387  0.41193  Biso   1.000  O
  O11      1.0000 0.48357  0.76613  0.08807  Biso   1.000  O
  O12      1.0000 0.51643  0.23387  0.08807  Biso   1.000  O
  O13      1.0000 0.71776  0.50000  0.50000  Biso   1.000  O
  O14      1.0000 0.28224  0.50000  0.50000  Biso   1.000  O
  O15      1.0000 0.03224  0.25000  0.75000  Biso   1.000  O
  O16      1.0000 0.46776  0.25000  0.75000  Biso   1.000  O
  O17      1.0000 0.23357  0.48387  0.83807  Biso   1.000  O
  O18      1.0000 0.76643  0.51613  0.83807  Biso   1.000  O
  O19      1.0000 0.26643  0.48387  0.66193  Biso   1.000  O
  O20      1.0000 0.73357  0.51613  0.66193  Biso   1.000  O
  O21      1.0000 0.01643  0.26613  0.91193  Biso   1.000  O
  O22      1.0000 0.98357  0.73387  0.91193  Biso   1.000  O
  O23      1.0000 0.48357  0.26613  0.58807  Biso   1.000  O
  O24      1.0000 0.51643  0.73387  0.58807  Biso   1.000  O
  O25      1.0000 0.21776  0.00000  0.50000  Biso   1.000  O
  O26      1.0000 0.78224  0.00000  0.50000  Biso   1.000  O
  O27      1.0000 0.53224  0.75000  0.75000  Biso   1.000  O
  O28      1.0000 0.96776  0.75000  0.75000  Biso   1.000  O
  O29      1.0000 0.73357  0.98387  0.83807  Biso   1.000  O
  O30      1.0000 0.26643  0.01613  0.83807  Biso   1.000  O
  O31      1.0000 0.76643  0.98387  0.66193  Biso   1.000  O
  O32      1.0000 0.23357  0.01613  0.66193  Biso   1.000  O
  O33      1.0000 0.51643  0.76613  0.91193  Biso   1.000  O
  O34      1.0000 0.48357  0.23387  0.91193  Biso   1.000  O
  O35      1.0000 0.98357  0.76613  0.58807  Biso   1.000  O
  O36      1.0000 0.01643  0.23387  0.58807  Biso   1.000  O
  O37      1.0000 0.21776  0.50000  0.00000  Biso   1.000  O
  O38      1.0000 0.78224  0.50000  0.00000  Biso   1.000  O
  O39      1.0000 0.53224  0.25000  0.25000  Biso   1.000  O
  O40      1.0000 0.96776  0.25000  0.25000  Biso   1.000  O
  O41      1.0000 0.73357  0.48387  0.33807  Biso   1.000  O
  O42      1.0000 0.26643  0.51613  0.33807  Biso   1.000  O
  O43      1.0000 0.76643  0.48387  0.16193  Biso   1.000  O
  O44      1.0000 0.23357  0.51613  0.16193  Biso   1.000  O
  O45      1.0000 0.51643  0.26613  0.41193  Biso   1.000  O
  O46      1.0000 0.48357  0.73387  0.41193  Biso   1.000  O
  O47      1.0000 0.98357  0.26613  0.08807  Biso   1.000  O
  O48      1.0000 0.01643  0.73387  0.08807  Biso   1.000  O
  Ir1      1.0000 0.50000  0.00000  0.08367  Biso   1.000  Ir
  Ir2      1.0000 0.00000  0.00000  0.41633  Biso   1.000  Ir
  Ir3      1.0000 0.25000  0.75000  0.16633  Biso   1.000  Ir
  Ir4      1.0000 0.25000  0.75000  0.33367  Biso   1.000  Ir
  Ir5      1.0000 0.50000  0.50000  0.58367  Biso   1.000  Ir
  Ir6      1.0000 0.00000  0.50000  0.91633  Biso   1.000  Ir
  Ir7      1.0000 0.25000  0.25000  0.66633  Biso   1.000  Ir
  Ir8      1.0000 0.25000  0.25000  0.83367  Biso   1.000  Ir
  Ir9      1.0000 0.00000  0.00000  0.58367  Biso   1.000  Ir
  Ir10     1.0000 0.50000  0.00000  0.91633  Biso   1.000  Ir
  Ir11     1.0000 0.75000  0.75000  0.66633  Biso   1.000  Ir
  Ir12     1.0000 0.75000  0.75000  0.83367  Biso   1.000  Ir
  Ir13     1.0000 0.00000  0.50000  0.08367  Biso   1.000  Ir
  Ir14     1.0000 0.50000  0.50000  0.41633  Biso   1.000  Ir
  Ir15     1.0000 0.75000  0.25000  0.16633  Biso   1.000  Ir
  Ir16     1.0000 0.75000  0.25000  0.33367  Biso   1.000  Ir
