data_image0
_cell_length_a       15.5767
_cell_length_b       8.99719
_cell_length_c       21.8058
_cell_angle_alpha    90
_cell_angle_beta     90.0084
_cell_angle_gamma    90

_symmetry_space_group_name_H-M    "P 1"
_symmetry_int_tables_number       1

loop_
  _symmetry_equiv_pos_as_xyz
  'x, y, z'

loop_
  _atom_site_label
  _atom_site_occupancy
  _atom_site_fract_x
  _atom_site_fract_y
  _atom_site_fract_z
  _atom_site_thermal_displace_type
  _atom_site_B_iso_or_equiv
  _atom_site_type_symbol
  Ir1      1.0000 0.33329  0.99997  0.95876  Biso   1.000  Ir
  Ir2      1.0000 0.66671  0.99997  0.54124  Biso   1.000  Ir
  Ir3      1.0000 0.66671  0.00003  0.04124  Biso   1.000  Ir
  Ir4      1.0000 0.33329  0.00003  0.45876  Biso   1.000  Ir
  Ir5      1.0000 0.50000  0.50000  0.87547  Biso   1.000  Ir
  Ir6      1.0000 0.50000  0.50000  0.62453  Biso   1.000  Ir
  Ir7      1.0000 0.50000  0.50000  0.12453  Biso   1.000  Ir
  Ir8      1.0000 0.50000  0.50000  0.37547  Biso   1.000  Ir
  Ir9      1.0000 0.66657  0.99996  0.79203  Biso   1.000  Ir
  Ir10     1.0000 0.33343  0.99996  0.70797  Biso   1.000  Ir
  Ir11     1.0000 0.33343  0.00004  0.20797  Biso   1.000  Ir
  Ir12     1.0000 0.66657  0.00004  0.29203  Biso   1.000  Ir
  Ir13     1.0000 0.83329  0.49997  0.95876  Biso   1.000  Ir
  Ir14     1.0000 0.16671  0.49997  0.54124  Biso   1.000  Ir
  Ir15     1.0000 0.16671  0.50003  0.04124  Biso   1.000  Ir
  Ir16     1.0000 0.83329  0.50003  0.45876  Biso   1.000  Ir
  Ir17     1.0000 0.00000  1.00000  0.87547  Biso   1.000  Ir
  Ir18     1.0000 1.00000  1.00000  0.62453  Biso   1.000  Ir
  Ir19     1.0000 1.00000  0.00000  0.12453  Biso   1.000  Ir
  Ir20     1.0000 0.00000  0.00000  0.37547  Biso   1.000  Ir
  Ir21     1.0000 0.16657  0.49996  0.79203  Biso   1.000  Ir
  Ir22     1.0000 0.83343  0.49996  0.70797  Biso   1.000  Ir
  Ir23     1.0000 0.83343  0.50004  0.20797  Biso   1.000  Ir
  Ir24     1.0000 0.16657  0.50004  0.29203  Biso   1.000  Ir
  O1       1.0000 0.58504  0.74533  0.95957  Biso   1.000  O
  O2       1.0000 0.41496  0.74533  0.54043  Biso   1.000  O
  O3       1.0000 0.41496  0.25467  0.04043  Biso   1.000  O
  O4       1.0000 0.58504  0.25467  0.45957  Biso   1.000  O
  O5       1.0000 0.58018  0.24981  0.95954  Biso   1.000  O
  O6       1.0000 0.41982  0.24981  0.54046  Biso   1.000  O
  O7       1.0000 0.41982  0.75019  0.04046  Biso   1.000  O
  O8       1.0000 0.58018  0.75019  0.45954  Biso   1.000  O
  O9       1.0000 0.83481  0.00488  0.95948  Biso   1.000  O
  O10      1.0000 0.16519  0.00488  0.54052  Biso   1.000  O
  O11      1.0000 0.16519  0.99512  0.04052  Biso   1.000  O
  O12      1.0000 0.83481  0.99512  0.45948  Biso   1.000  O
  O13      1.0000 0.50299  0.01824  0.87752  Biso   1.000  O
  O14      1.0000 0.49701  0.01824  0.62248  Biso   1.000  O
  O15      1.0000 0.49701  0.98176  0.12248  Biso   1.000  O
  O16      1.0000 0.50299  0.98176  0.37752  Biso   1.000  O
  O17      1.0000 0.73947  0.74591  0.87739  Biso   1.000  O
  O18      1.0000 0.26053  0.74591  0.62261  Biso   1.000  O
  O19      1.0000 0.26053  0.25409  0.12261  Biso   1.000  O
  O20      1.0000 0.73947  0.25409  0.37739  Biso   1.000  O
  O21      1.0000 0.75741  0.23622  0.87732  Biso   1.000  O
  O22      1.0000 0.24259  0.23622  0.62268  Biso   1.000  O
  O23      1.0000 0.24259  0.76378  0.12268  Biso   1.000  O
  O24      1.0000 0.75741  0.76378  0.37732  Biso   1.000  O
  O25      1.0000 0.40143  0.73678  0.79341  Biso   1.000  O
  O26      1.0000 0.59857  0.73678  0.70659  Biso   1.000  O
  O27      1.0000 0.59857  0.26322  0.20659  Biso   1.000  O
  O28      1.0000 0.40143  0.26322  0.29341  Biso   1.000  O
  O29      1.0000 0.43085  0.23359  0.79340  Biso   1.000  O
  O30      1.0000 0.56915  0.23359  0.70660  Biso   1.000  O
  O31      1.0000 0.56915  0.76641  0.20660  Biso   1.000  O
  O32      1.0000 0.43085  0.76641  0.29340  Biso   1.000  O
  O33      1.0000 0.16812  0.02958  0.79336  Biso   1.000  O
  O34      1.0000 0.83188  0.02958  0.70664  Biso   1.000  O
  O35      1.0000 0.83188  0.97042  0.20664  Biso   1.000  O
  O36      1.0000 0.16812  0.97042  0.29336  Biso   1.000  O
  O37      1.0000 0.08504  0.24533  0.95957  Biso   1.000  O
  O38      1.0000 0.91496  0.24533  0.54043  Biso   1.000  O
  O39      1.0000 0.91496  0.75467  0.04043  Biso   1.000  O
  O40      1.0000 0.08504  0.75467  0.45957  Biso   1.000  O
  O41      1.0000 0.08018  0.74981  0.95954  Biso   1.000  O
  O42      1.0000 0.91982  0.74981  0.54046  Biso   1.000  O
  O43      1.0000 0.91982  0.25019  0.04046  Biso   1.000  O
  O44      1.0000 0.08018  0.25019  0.45954  Biso   1.000  O
  O45      1.0000 0.33481  0.50488  0.95948  Biso   1.000  O
  O46      1.0000 0.66519  0.50488  0.54052  Biso   1.000  O
  O47      1.0000 0.66519  0.49512  0.04052  Biso   1.000  O
  O48      1.0000 0.33481  0.49512  0.45948  Biso   1.000  O
  O49      1.0000 0.00300  0.51824  0.87752  Biso   1.000  O
  O50      1.0000 0.99701  0.51824  0.62248  Biso   1.000  O
  O51      1.0000 0.99701  0.48176  0.12248  Biso   1.000  O
  O52      1.0000 0.00300  0.48176  0.37752  Biso   1.000  O
  O53      1.0000 0.23947  0.24591  0.87739  Biso   1.000  O
  O54      1.0000 0.76053  0.24591  0.62261  Biso   1.000  O
  O55      1.0000 0.76053  0.75409  0.12261  Biso   1.000  O
  O56      1.0000 0.23947  0.75409  0.37739  Biso   1.000  O
  O57      1.0000 0.25741  0.73622  0.87732  Biso   1.000  O
  O58      1.0000 0.74259  0.73622  0.62268  Biso   1.000  O
  O59      1.0000 0.74259  0.26378  0.12268  Biso   1.000  O
  O60      1.0000 0.25741  0.26378  0.37732  Biso   1.000  O
  O61      1.0000 0.90143  0.23678  0.79341  Biso   1.000  O
  O62      1.0000 0.09857  0.23678  0.70659  Biso   1.000  O
  O63      1.0000 0.09857  0.76322  0.20659  Biso   1.000  O
  O64      1.0000 0.90143  0.76322  0.29341  Biso   1.000  O
  O65      1.0000 0.93085  0.73359  0.79340  Biso   1.000  O
  O66      1.0000 0.06916  0.73359  0.70660  Biso   1.000  O
  O67      1.0000 0.06916  0.26641  0.20660  Biso   1.000  O
  O68      1.0000 0.93085  0.26641  0.29340  Biso   1.000  O
  O69      1.0000 0.66812  0.52958  0.79336  Biso   1.000  O
  O70      1.0000 0.33188  0.52958  0.70664  Biso   1.000  O
  O71      1.0000 0.33188  0.47042  0.20664  Biso   1.000  O
  O72      1.0000 0.66812  0.47042  0.29336  Biso   1.000  O
