data_image0
_cell_length_a       26.2399
_cell_length_b       26.2399
_cell_length_c       8.59151
_cell_angle_alpha    90
_cell_angle_beta     90
_cell_angle_gamma    120

_symmetry_space_group_name_H-M    "P 1"
_symmetry_int_tables_number       1

loop_
  _symmetry_equiv_pos_as_xyz
  'x, y, z'

loop_
  _atom_site_label
  _atom_site_occupancy
  _atom_site_fract_x
  _atom_site_fract_y
  _atom_site_fract_z
  _atom_site_thermal_displace_type
  _atom_site_B_iso_or_equiv
  _atom_site_type_symbol
  O1       1.0000 0.39883  0.45106  0.98139  Biso   1.000  O
  O2       1.0000 0.21561  0.28111  0.31472  Biso   1.000  O
  O3       1.0000 0.38556  0.26783  0.64805  Biso   1.000  O
  O4       1.0000 0.26783  0.88228  0.35194  Biso   1.000  O
  O5       1.0000 0.45106  0.05223  0.01861  Biso   1.000  O
  O6       1.0000 0.28111  0.06550  0.68528  Biso   1.000  O
  O7       1.0000 0.36441  0.06031  0.35540  Biso   1.000  O
  O8       1.0000 0.27303  0.97077  0.02207  Biso   1.000  O
  O9       1.0000 0.36256  0.96892  0.68873  Biso   1.000  O
  O10      1.0000 0.30226  0.27303  0.97793  Biso   1.000  O
  O11      1.0000 0.39364  0.36256  0.31127  Biso   1.000  O
  O12      1.0000 0.30410  0.36441  0.64460  Biso   1.000  O
  O13      1.0000 0.10020  0.18007  0.99928  Biso   1.000  O
  O14      1.0000 0.48660  0.25347  0.33261  Biso   1.000  O
  O15      1.0000 0.41320  0.56646  0.66594  Biso   1.000  O
  O16      1.0000 0.56646  0.15327  0.33405  Biso   1.000  O
  O17      1.0000 0.18007  0.07987  0.00072  Biso   1.000  O
  O18      1.0000 0.25347  0.76687  0.66739  Biso   1.000  O
  O19      1.0000 0.21521  0.37110  0.99893  Biso   1.000  O
  O20      1.0000 0.29556  0.17744  0.33226  Biso   1.000  O
  O21      1.0000 0.48923  0.45146  0.66559  Biso   1.000  O
  O22      1.0000 0.45146  0.96223  0.33441  Biso   1.000  O
  O23      1.0000 0.37110  0.15589  0.00107  Biso   1.000  O
  O24      1.0000 0.17744  0.88188  0.66774  Biso   1.000  O
  O25      1.0000 0.18092  0.97826  0.36253  Biso   1.000  O
  O26      1.0000 0.35508  0.86933  0.02920  Biso   1.000  O
  O27      1.0000 0.46401  0.15241  0.69586  Biso   1.000  O
  O28      1.0000 0.48575  0.35508  0.97081  Biso   1.000  O
  O29      1.0000 0.31159  0.46401  0.30414  Biso   1.000  O
  O30      1.0000 0.20266  0.18092  0.63747  Biso   1.000  O
  O31      1.0000 0.32621  0.57282  0.98069  Biso   1.000  O
  O32      1.0000 0.09385  0.08672  0.31402  Biso   1.000  O
  O33      1.0000 0.57994  0.34046  0.64735  Biso   1.000  O
  O34      1.0000 0.34046  0.76052  0.35265  Biso   1.000  O
  O35      1.0000 0.57282  0.24661  0.01931  Biso   1.000  O
  O36      1.0000 0.08672  0.99287  0.68598  Biso   1.000  O
  O37      1.0000 0.06550  0.78439  0.31472  Biso   1.000  O
  O38      1.0000 0.88228  0.61444  0.64805  Biso   1.000  O
  O39      1.0000 0.05223  0.60117  0.98139  Biso   1.000  O
  O40      1.0000 0.93450  0.21561  0.68528  Biso   1.000  O
  O41      1.0000 0.11772  0.38556  0.35194  Biso   1.000  O
  O42      1.0000 0.94777  0.39883  0.01861  Biso   1.000  O
  O43      1.0000 0.03108  0.39364  0.68873  Biso   1.000  O
  O44      1.0000 0.93969  0.30410  0.35540  Biso   1.000  O
  O45      1.0000 0.02923  0.30226  0.02207  Biso   1.000  O
  O46      1.0000 0.96892  0.60636  0.31127  Biso   1.000  O
  O47      1.0000 0.06031  0.69590  0.64460  Biso   1.000  O
  O48      1.0000 0.97077  0.69774  0.97793  Biso   1.000  O
  O49      1.0000 0.76687  0.51340  0.33261  Biso   1.000  O
  O50      1.0000 0.15327  0.58680  0.66594  Biso   1.000  O
  O51      1.0000 0.07987  0.89980  0.99928  Biso   1.000  O
  O52      1.0000 0.23313  0.48660  0.66739  Biso   1.000  O
  O53      1.0000 0.84673  0.41320  0.33405  Biso   1.000  O
  O54      1.0000 0.92014  0.10020  0.00072  Biso   1.000  O
  O55      1.0000 0.88188  0.70444  0.33226  Biso   1.000  O
  O56      1.0000 0.96223  0.51077  0.66559  Biso   1.000  O
  O57      1.0000 0.15589  0.78479  0.99893  Biso   1.000  O
  O58      1.0000 0.11812  0.29556  0.66774  Biso   1.000  O
  O59      1.0000 0.03777  0.48923  0.33441  Biso   1.000  O
  O60      1.0000 0.84411  0.21521  0.00107  Biso   1.000  O
  O61      1.0000 0.84759  0.31159  0.69586  Biso   1.000  O
  O62      1.0000 0.02174  0.20266  0.36253  Biso   1.000  O
  O63      1.0000 0.13067  0.48575  0.02920  Biso   1.000  O
  O64      1.0000 0.15241  0.68841  0.30414  Biso   1.000  O
  O65      1.0000 0.97826  0.79734  0.63747  Biso   1.000  O
  O66      1.0000 0.86933  0.51425  0.97081  Biso   1.000  O
  O67      1.0000 0.99287  0.90615  0.31402  Biso   1.000  O
  O68      1.0000 0.76052  0.42006  0.64735  Biso   1.000  O
  O69      1.0000 0.24661  0.67379  0.98069  Biso   1.000  O
  O70      1.0000 0.00713  0.09385  0.68598  Biso   1.000  O
  O71      1.0000 0.23948  0.57994  0.35265  Biso   1.000  O
  O72      1.0000 0.75339  0.32621  0.01931  Biso   1.000  O
  O73      1.0000 0.73217  0.11772  0.64805  Biso   1.000  O
  O74      1.0000 0.54894  0.94777  0.98139  Biso   1.000  O
  O75      1.0000 0.71889  0.93450  0.31472  Biso   1.000  O
  O76      1.0000 0.60117  0.54894  0.01861  Biso   1.000  O
  O77      1.0000 0.78439  0.71889  0.68528  Biso   1.000  O
  O78      1.0000 0.61444  0.73217  0.35194  Biso   1.000  O
  O79      1.0000 0.69774  0.72698  0.02207  Biso   1.000  O
  O80      1.0000 0.60636  0.63744  0.68873  Biso   1.000  O
  O81      1.0000 0.69590  0.63559  0.35540  Biso   1.000  O
  O82      1.0000 0.63559  0.93969  0.64460  Biso   1.000  O
  O83      1.0000 0.72698  0.02923  0.97793  Biso   1.000  O
  O84      1.0000 0.63744  0.03108  0.31127  Biso   1.000  O
  O85      1.0000 0.43354  0.84673  0.66594  Biso   1.000  O
  O86      1.0000 0.81993  0.92014  0.99928  Biso   1.000  O
  O87      1.0000 0.74653  0.23313  0.33261  Biso   1.000  O
  O88      1.0000 0.89980  0.81993  0.00072  Biso   1.000  O
  O89      1.0000 0.51340  0.74653  0.66739  Biso   1.000  O
  O90      1.0000 0.58680  0.43354  0.33405  Biso   1.000  O
  O91      1.0000 0.54854  0.03777  0.66559  Biso   1.000  O
  O92      1.0000 0.62890  0.84411  0.99893  Biso   1.000  O
  O93      1.0000 0.82256  0.11812  0.33226  Biso   1.000  O
  O94      1.0000 0.78479  0.62890  0.00107  Biso   1.000  O
  O95      1.0000 0.70444  0.82256  0.66774  Biso   1.000  O
  O96      1.0000 0.51077  0.54854  0.33441  Biso   1.000  O
  O97      1.0000 0.51425  0.64492  0.02920  Biso   1.000  O
  O98      1.0000 0.68841  0.53599  0.69586  Biso   1.000  O
  O99      1.0000 0.79734  0.81908  0.36253  Biso   1.000  O
  O100     1.0000 0.81908  0.02174  0.63747  Biso   1.000  O
  O101     1.0000 0.64492  0.13067  0.97081  Biso   1.000  O
  O102     1.0000 0.53599  0.84759  0.30414  Biso   1.000  O
  O103     1.0000 0.65954  0.23948  0.64735  Biso   1.000  O
  O104     1.0000 0.42718  0.75339  0.98069  Biso   1.000  O
  O105     1.0000 0.91328  0.00713  0.31402  Biso   1.000  O
  O106     1.0000 0.67379  0.42718  0.01931  Biso   1.000  O
  O107     1.0000 0.90615  0.91328  0.68598  Biso   1.000  O
  O108     1.0000 0.42006  0.65954  0.35265  Biso   1.000  O
  Ir1      1.0000 0.08868  0.99282  0.16123  Biso   1.000  Ir
  Ir2      1.0000 0.34051  0.76252  0.82789  Biso   1.000  Ir
  Ir3      1.0000 0.57081  0.24466  0.49456  Biso   1.000  Ir
  Ir4      1.0000 0.57799  0.34051  0.17211  Biso   1.000  Ir
  Ir5      1.0000 0.32616  0.57081  0.50544  Biso   1.000  Ir
  Ir6      1.0000 0.09585  0.08868  0.83877  Biso   1.000  Ir
  Ir7      1.0000 0.30512  0.36858  0.14829  Biso   1.000  Ir
  Ir8      1.0000 0.29808  0.26987  0.48162  Biso   1.000  Ir
  Ir9      1.0000 0.39680  0.36155  0.81495  Biso   1.000  Ir
  Ir10     1.0000 0.36155  0.96475  0.18505  Biso   1.000  Ir
  Ir11     1.0000 0.36858  0.06346  0.85171  Biso   1.000  Ir
  Ir12     1.0000 0.26987  0.97178  0.51838  Biso   1.000  Ir
  Ir13     1.0000 0.75534  0.32616  0.49456  Biso   1.000  Ir
  Ir14     1.0000 0.00718  0.09585  0.16123  Biso   1.000  Ir
  Ir15     1.0000 0.23748  0.57799  0.82789  Biso   1.000  Ir
  Ir16     1.0000 0.24466  0.67384  0.50544  Biso   1.000  Ir
  Ir17     1.0000 0.99282  0.90415  0.83877  Biso   1.000  Ir
  Ir18     1.0000 0.76252  0.42201  0.17211  Biso   1.000  Ir
  Ir19     1.0000 0.97178  0.70192  0.48162  Biso   1.000  Ir
  Ir20     1.0000 0.96475  0.60320  0.81495  Biso   1.000  Ir
  Ir21     1.0000 0.06346  0.69488  0.14829  Biso   1.000  Ir
  Ir22     1.0000 0.02822  0.29809  0.51838  Biso   1.000  Ir
  Ir23     1.0000 0.03525  0.39680  0.18505  Biso   1.000  Ir
  Ir24     1.0000 0.93654  0.30512  0.85171  Biso   1.000  Ir
  Ir25     1.0000 0.42201  0.65949  0.82789  Biso   1.000  Ir
  Ir26     1.0000 0.67384  0.42919  0.49456  Biso   1.000  Ir
  Ir27     1.0000 0.90415  0.91132  0.16123  Biso   1.000  Ir
  Ir28     1.0000 0.91132  0.00718  0.83877  Biso   1.000  Ir
  Ir29     1.0000 0.65949  0.23748  0.17211  Biso   1.000  Ir
  Ir30     1.0000 0.42919  0.75534  0.50544  Biso   1.000  Ir
  Ir31     1.0000 0.63845  0.03525  0.81495  Biso   1.000  Ir
  Ir32     1.0000 0.63142  0.93654  0.14829  Biso   1.000  Ir
  Ir33     1.0000 0.73013  0.02822  0.48162  Biso   1.000  Ir
  Ir34     1.0000 0.69488  0.63142  0.85171  Biso   1.000  Ir
  Ir35     1.0000 0.70192  0.73013  0.51838  Biso   1.000  Ir
  Ir36     1.0000 0.60320  0.63845  0.18505  Biso   1.000  Ir
