data_image0
_cell_length_a       10.1193
_cell_length_b       11.4504
_cell_length_c       8.84248
_cell_angle_alpha    90
_cell_angle_beta     110.664
_cell_angle_gamma    90

_symmetry_space_group_name_H-M    "P 1"
_symmetry_int_tables_number       1

loop_
  _symmetry_equiv_pos_as_xyz
  'x, y, z'

loop_
  _atom_site_label
  _atom_site_occupancy
  _atom_site_fract_x
  _atom_site_fract_y
  _atom_site_fract_z
  _atom_site_thermal_displace_type
  _atom_site_B_iso_or_equiv
  _atom_site_type_symbol
  Ir1      1.0000 0.47829  0.21603  0.49256  Biso   1.000  Ir
  Ir2      1.0000 0.52171  0.71603  0.00744  Biso   1.000  Ir
  Ir3      1.0000 0.52171  0.78397  0.50744  Biso   1.000  Ir
  Ir4      1.0000 0.47829  0.28397  0.99256  Biso   1.000  Ir
  Ir5      1.0000 0.49792  0.50000  0.32577  Biso   1.000  Ir
  Ir6      1.0000 0.50208  0.00000  0.17423  Biso   1.000  Ir
  Ir7      1.0000 0.50208  0.50000  0.67423  Biso   1.000  Ir
  Ir8      1.0000 0.49792  0.00000  0.82577  Biso   1.000  Ir
  O1       1.0000 0.29003  0.59385  0.43222  Biso   1.000  O
  O2       1.0000 0.70997  0.09385  0.06778  Biso   1.000  O
  O3       1.0000 0.70997  0.40615  0.56778  Biso   1.000  O
  O4       1.0000 0.29003  0.90615  0.93222  Biso   1.000  O
  O5       1.0000 0.75368  0.67242  0.43147  Biso   1.000  O
  O6       1.0000 0.24632  0.17242  0.06853  Biso   1.000  O
  O7       1.0000 0.24632  0.32758  0.56853  Biso   1.000  O
  O8       1.0000 0.75368  0.82758  0.93147  Biso   1.000  O
  O9       1.0000 0.20085  0.05427  0.40154  Biso   1.000  O
  O10      1.0000 0.79916  0.55427  0.09846  Biso   1.000  O
  O11      1.0000 0.79916  0.94573  0.59846  Biso   1.000  O
  O12      1.0000 0.20085  0.44573  0.90154  Biso   1.000  O
  O13      1.0000 0.70203  0.11843  0.40006  Biso   1.000  O
  O14      1.0000 0.29797  0.61843  0.09994  Biso   1.000  O
  O15      1.0000 0.29797  0.88157  0.59994  Biso   1.000  O
  O16      1.0000 0.70203  0.38157  0.90006  Biso   1.000  O
  O17      1.0000 0.30224  0.88173  0.26929  Biso   1.000  O
  O18      1.0000 0.69776  0.38173  0.23071  Biso   1.000  O
  O19      1.0000 0.69776  0.11827  0.73071  Biso   1.000  O
  O20      1.0000 0.30224  0.61827  0.76929  Biso   1.000  O
  O21      1.0000 0.24595  0.32489  0.26399  Biso   1.000  O
  O22      1.0000 0.75405  0.82489  0.23601  Biso   1.000  O
  O23      1.0000 0.75405  0.67511  0.73601  Biso   1.000  O
  O24      1.0000 0.24595  0.17511  0.76399  Biso   1.000  O
