data_image0
_cell_length_a       7.25737
_cell_length_b       5.4749
_cell_length_c       12.6559
_cell_angle_alpha    90
_cell_angle_beta     93.7198
_cell_angle_gamma    90

_symmetry_space_group_name_H-M    "P 1"
_symmetry_int_tables_number       1

loop_
  _symmetry_equiv_pos_as_xyz
  'x, y, z'

loop_
  _atom_site_label
  _atom_site_occupancy
  _atom_site_fract_x
  _atom_site_fract_y
  _atom_site_fract_z
  _atom_site_thermal_displace_type
  _atom_site_B_iso_or_equiv
  _atom_site_type_symbol
  Ir1      1.0000 0.51550  0.25000  0.83021  Biso   1.000  Ir
  Ir2      1.0000 0.48450  0.75000  0.16979  Biso   1.000  Ir
  Ir3      1.0000 0.98950  0.25000  0.33446  Biso   1.000  Ir
  Ir4      1.0000 0.01050  0.75000  0.66554  Biso   1.000  Ir
  O1       1.0000 0.50451  0.25000  0.31969  Biso   1.000  O
  O2       1.0000 0.49549  0.75000  0.68031  Biso   1.000  O
  O3       1.0000 0.70676  0.25000  0.08061  Biso   1.000  O
  O4       1.0000 0.29324  0.75000  0.91938  Biso   1.000  O
  O5       1.0000 0.23597  0.25000  0.10456  Biso   1.000  O
  O6       1.0000 0.76403  0.75000  0.89544  Biso   1.000  O
  O7       1.0000 0.23252  0.25000  0.58220  Biso   1.000  O
  O8       1.0000 0.76748  0.75000  0.41780  Biso   1.000  O
  O9       1.0000 0.77033  0.25000  0.59179  Biso   1.000  O
  O10      1.0000 0.22967  0.75000  0.40821  Biso   1.000  O
  O11      1.0000 0.02595  0.25000  0.81980  Biso   1.000  O
  O12      1.0000 0.97406  0.75000  0.18020  Biso   1.000  O
