data_image0
_cell_length_a       5.19448
_cell_length_b       5.19448
_cell_length_c       7.37649
_cell_angle_alpha    90
_cell_angle_beta     90
_cell_angle_gamma    120

_symmetry_space_group_name_H-M    "P 1"
_symmetry_int_tables_number       1

loop_
  _symmetry_equiv_pos_as_xyz
  'x, y, z'

loop_
  _atom_site_label
  _atom_site_occupancy
  _atom_site_fract_x
  _atom_site_fract_y
  _atom_site_fract_z
  _atom_site_thermal_displace_type
  _atom_site_B_iso_or_equiv
  _atom_site_type_symbol
  O1       1.0000 0.33333  0.66667  0.58189  Biso   1.000  O
  O2       1.0000 0.66667  0.33333  0.08189  Biso   1.000  O
  O3       1.0000 0.66667  0.33333  0.41811  Biso   1.000  O
  O4       1.0000 0.33333  0.66667  0.91811  Biso   1.000  O
  O5       1.0000 0.00000  0.00000  0.25000  Biso   1.000  O
  O6       1.0000 0.00000  0.00000  0.75000  Biso   1.000  O
  Ir1      1.0000 0.33333  0.66667  0.25000  Biso   1.000  Ir
  Ir2      1.0000 0.66667  0.33333  0.75000  Biso   1.000  Ir
