data_image0
_cell_length_a       6.37188
_cell_length_b       6.37188
_cell_length_c       15.1146
_cell_angle_alpha    90
_cell_angle_beta     90
_cell_angle_gamma    90

_symmetry_space_group_name_H-M    "P 1"
_symmetry_int_tables_number       1

loop_
  _symmetry_equiv_pos_as_xyz
  'x, y, z'

loop_
  _atom_site_label
  _atom_site_occupancy
  _atom_site_fract_x
  _atom_site_fract_y
  _atom_site_fract_z
  _atom_site_thermal_displace_type
  _atom_site_B_iso_or_equiv
  _atom_site_type_symbol
  O1       1.0000 0.00000  0.50000  0.25000  Biso   1.000  O
  O2       1.0000 0.30571  0.50000  0.35817  Biso   1.000  O
  O3       1.0000 0.69429  0.50000  0.35817  Biso   1.000  O
  O4       1.0000 0.00000  0.19429  0.14183  Biso   1.000  O
  O5       1.0000 0.00000  0.80571  0.14183  Biso   1.000  O
  O6       1.0000 0.70700  0.00000  0.02708  Biso   1.000  O
  O7       1.0000 0.29300  0.00000  0.02708  Biso   1.000  O
  O8       1.0000 0.50000  0.79300  0.47292  Biso   1.000  O
  O9       1.0000 0.50000  0.20700  0.47292  Biso   1.000  O
  O10      1.0000 0.50000  0.00000  0.75000  Biso   1.000  O
  O11      1.0000 0.80571  0.00000  0.85817  Biso   1.000  O
  O12      1.0000 0.19429  0.00000  0.85817  Biso   1.000  O
  O13      1.0000 0.50000  0.69429  0.64183  Biso   1.000  O
  O14      1.0000 0.50000  0.30571  0.64183  Biso   1.000  O
  O15      1.0000 0.20700  0.50000  0.52708  Biso   1.000  O
  O16      1.0000 0.79300  0.50000  0.52708  Biso   1.000  O
  O17      1.0000 0.00000  0.29300  0.97292  Biso   1.000  O
  O18      1.0000 0.00000  0.70700  0.97292  Biso   1.000  O
  Ir1      1.0000 0.50000  0.00000  0.25000  Biso   1.000  Ir
  Ir2      1.0000 0.00000  0.00000  0.37795  Biso   1.000  Ir
  Ir3      1.0000 0.50000  0.50000  0.12205  Biso   1.000  Ir
  Ir4      1.0000 0.00000  0.50000  0.75000  Biso   1.000  Ir
  Ir5      1.0000 0.50000  0.50000  0.87795  Biso   1.000  Ir
  Ir6      1.0000 0.00000  0.00000  0.62205  Biso   1.000  Ir
