data_image0
_cell_length_a       8.52013
_cell_length_b       3.67039
_cell_length_c       6.36788
_cell_angle_alpha    90
_cell_angle_beta     107.115
_cell_angle_gamma    90

_symmetry_space_group_name_H-M    "P 1"
_symmetry_int_tables_number       1

loop_
  _symmetry_equiv_pos_as_xyz
  'x, y, z'

loop_
  _atom_site_label
  _atom_site_occupancy
  _atom_site_fract_x
  _atom_site_fract_y
  _atom_site_fract_z
  _atom_site_thermal_displace_type
  _atom_site_B_iso_or_equiv
  _atom_site_type_symbol
  Ir1      1.0000 0.43709  0.00000  0.72073  Biso   1.000  Ir
  Ir2      1.0000 0.06291  0.50000  0.27927  Biso   1.000  Ir
  Ir3      1.0000 0.93709  0.50000  0.72073  Biso   1.000  Ir
  Ir4      1.0000 0.56291  0.00000  0.27927  Biso   1.000  Ir
  O1       1.0000 0.29084  0.00000  0.36879  Biso   1.000  O
  O2       1.0000 0.20917  0.50000  0.63121  Biso   1.000  O
  O3       1.0000 0.00000  0.00000  0.50000  Biso   1.000  O
  O4       1.0000 0.27086  0.50000  0.03197  Biso   1.000  O
  O5       1.0000 0.22914  0.00000  0.96803  Biso   1.000  O
  O6       1.0000 0.00000  0.00000  0.00000  Biso   1.000  O
  O7       1.0000 0.79084  0.50000  0.36879  Biso   1.000  O
  O8       1.0000 0.70917  0.00000  0.63121  Biso   1.000  O
  O9       1.0000 0.50000  0.50000  0.50000  Biso   1.000  O
  O10      1.0000 0.77086  0.00000  0.03197  Biso   1.000  O
  O11      1.0000 0.72914  0.50000  0.96803  Biso   1.000  O
  O12      1.0000 0.50000  0.50000  0.00000  Biso   1.000  O
