data_image0
_cell_length_a       6.64655
_cell_length_b       6.63739
_cell_length_c       4.69931
_cell_angle_alpha    90
_cell_angle_beta     90.0125
_cell_angle_gamma    90

_symmetry_space_group_name_H-M    "P 1"
_symmetry_int_tables_number       1

loop_
  _symmetry_equiv_pos_as_xyz
  'x, y, z'

loop_
  _atom_site_label
  _atom_site_occupancy
  _atom_site_fract_x
  _atom_site_fract_y
  _atom_site_fract_z
  _atom_site_thermal_displace_type
  _atom_site_B_iso_or_equiv
  _atom_site_type_symbol
  O1       1.0000 0.74995  0.24996  0.50004  Biso   1.000  O
  O2       1.0000 0.25005  0.24996  0.49996  Biso   1.000  O
  O3       1.0000 0.50000  0.00006  0.00000  Biso   1.000  O
  O4       1.0000 0.24995  0.74996  0.50004  Biso   1.000  O
  O5       1.0000 0.75005  0.74996  0.49996  Biso   1.000  O
  O6       1.0000 0.00000  0.50006  0.00000  Biso   1.000  O
  Ir1      1.0000 0.50000  0.50005  0.00000  Biso   1.000  Ir
  Ir2      1.0000 0.00000  0.00005  0.00000  Biso   1.000  Ir
