data_image0
_cell_length_a       8.01449
_cell_length_b       8.46236
_cell_length_c       8.26543
_cell_angle_alpha    90
_cell_angle_beta     90
_cell_angle_gamma    90

_symmetry_space_group_name_H-M    "P 1"
_symmetry_int_tables_number       1

loop_
  _symmetry_equiv_pos_as_xyz
  'x, y, z'

loop_
  _atom_site_label
  _atom_site_occupancy
  _atom_site_fract_x
  _atom_site_fract_y
  _atom_site_fract_z
  _atom_site_thermal_displace_type
  _atom_site_B_iso_or_equiv
  _atom_site_type_symbol
  O1       1.0000 0.79705  0.99259  0.50999  Biso   1.000  O
  O2       1.0000 0.70295  0.50741  0.00999  Biso   1.000  O
  O3       1.0000 0.20295  0.99259  0.99001  Biso   1.000  O
  O4       1.0000 0.29705  0.50741  0.49001  Biso   1.000  O
  O5       1.0000 0.20295  0.00741  0.49001  Biso   1.000  O
  O6       1.0000 0.29705  0.49259  0.99001  Biso   1.000  O
  O7       1.0000 0.79705  0.00741  0.00999  Biso   1.000  O
  O8       1.0000 0.70295  0.49259  0.50999  Biso   1.000  O
  O9       1.0000 0.50000  0.79345  0.54868  Biso   1.000  O
  O10      1.0000 0.00000  0.70655  0.04868  Biso   1.000  O
  O11      1.0000 0.50000  0.79345  0.95132  Biso   1.000  O
  O12      1.0000 0.00000  0.70655  0.45132  Biso   1.000  O
  O13      1.0000 0.50000  0.20655  0.45132  Biso   1.000  O
  O14      1.0000 0.00000  0.29345  0.95132  Biso   1.000  O
  O15      1.0000 0.50000  0.20655  0.04868  Biso   1.000  O
  O16      1.0000 0.00000  0.29345  0.54868  Biso   1.000  O
  O17      1.0000 0.29977  0.76133  0.24043  Biso   1.000  O
  O18      1.0000 0.20023  0.73867  0.74043  Biso   1.000  O
  O19      1.0000 0.70023  0.76133  0.25957  Biso   1.000  O
  O20      1.0000 0.79977  0.73867  0.75957  Biso   1.000  O
  O21      1.0000 0.70023  0.23867  0.75957  Biso   1.000  O
  O22      1.0000 0.79977  0.26133  0.25957  Biso   1.000  O
  O23      1.0000 0.29977  0.23867  0.74043  Biso   1.000  O
  O24      1.0000 0.20023  0.26133  0.24043  Biso   1.000  O
  Ir1      1.0000 0.74642  0.78119  0.02339  Biso   1.000  Ir
  Ir2      1.0000 0.75358  0.71881  0.52339  Biso   1.000  Ir
  Ir3      1.0000 0.25358  0.78119  0.47661  Biso   1.000  Ir
  Ir4      1.0000 0.24642  0.71881  0.97661  Biso   1.000  Ir
  Ir5      1.0000 0.25358  0.21881  0.97661  Biso   1.000  Ir
  Ir6      1.0000 0.24642  0.28119  0.47661  Biso   1.000  Ir
  Ir7      1.0000 0.74642  0.21881  0.52339  Biso   1.000  Ir
  Ir8      1.0000 0.75358  0.28119  0.02339  Biso   1.000  Ir
