data_image0
_cell_length_a       5.79699
_cell_length_b       20.1217
_cell_length_c       9.51193
_cell_angle_alpha    90
_cell_angle_beta     90
_cell_angle_gamma    90

_symmetry_space_group_name_H-M    "P 1"
_symmetry_int_tables_number       1

loop_
  _symmetry_equiv_pos_as_xyz
  'x, y, z'

loop_
  _atom_site_label
  _atom_site_occupancy
  _atom_site_fract_x
  _atom_site_fract_y
  _atom_site_fract_z
  _atom_site_thermal_displace_type
  _atom_site_B_iso_or_equiv
  _atom_site_type_symbol
  O1       1.0000 0.24835  0.50000  0.00000  Biso   1.000  O
  O2       1.0000 0.75165  0.50000  0.50000  Biso   1.000  O
  O3       1.0000 0.75165  0.50000  0.00000  Biso   1.000  O
  O4       1.0000 0.24835  0.50000  0.50000  Biso   1.000  O
  O5       1.0000 0.00000  0.04445  0.25000  Biso   1.000  O
  O6       1.0000 0.50000  0.45555  0.75000  Biso   1.000  O
  O7       1.0000 0.24970  0.41650  0.25000  Biso   1.000  O
  O8       1.0000 0.25030  0.08350  0.75000  Biso   1.000  O
  O9       1.0000 0.75030  0.41650  0.25000  Biso   1.000  O
  O10      1.0000 0.74970  0.08350  0.75000  Biso   1.000  O
  O11      1.0000 0.00000  0.37406  0.99847  Biso   1.000  O
  O12      1.0000 0.50000  0.12595  0.49847  Biso   1.000  O
  O13      1.0000 0.00000  0.37406  0.50153  Biso   1.000  O
  O14      1.0000 0.50000  0.12595  0.00153  Biso   1.000  O
  O15      1.0000 0.24733  0.16703  0.25000  Biso   1.000  O
  O16      1.0000 0.25267  0.33297  0.75000  Biso   1.000  O
  O17      1.0000 0.75267  0.16703  0.25000  Biso   1.000  O
  O18      1.0000 0.74733  0.33297  0.75000  Biso   1.000  O
  O19      1.0000 0.50000  0.29244  0.25000  Biso   1.000  O
  O20      1.0000 0.00000  0.20756  0.75000  Biso   1.000  O
  O21      1.0000 0.25000  0.25000  0.00000  Biso   1.000  O
  O22      1.0000 0.25000  0.25000  0.50000  Biso   1.000  O
  O23      1.0000 0.75000  0.25000  0.50000  Biso   1.000  O
  O24      1.0000 0.75000  0.25000  0.00000  Biso   1.000  O
  O25      1.0000 0.74835  0.00000  0.00000  Biso   1.000  O
  O26      1.0000 0.25165  0.00000  0.50000  Biso   1.000  O
  O27      1.0000 0.25165  0.00000  0.00000  Biso   1.000  O
  O28      1.0000 0.74835  0.00000  0.50000  Biso   1.000  O
  O29      1.0000 0.50000  0.54445  0.25000  Biso   1.000  O
  O30      1.0000 0.00000  0.95555  0.75000  Biso   1.000  O
  O31      1.0000 0.74970  0.91650  0.25000  Biso   1.000  O
  O32      1.0000 0.75030  0.58350  0.75000  Biso   1.000  O
  O33      1.0000 0.25030  0.91650  0.25000  Biso   1.000  O
  O34      1.0000 0.24970  0.58350  0.75000  Biso   1.000  O
  O35      1.0000 0.50000  0.87405  0.99847  Biso   1.000  O
  O36      1.0000 0.00000  0.62595  0.49847  Biso   1.000  O
  O37      1.0000 0.50000  0.87405  0.50153  Biso   1.000  O
  O38      1.0000 0.00000  0.62595  0.00153  Biso   1.000  O
  O39      1.0000 0.74733  0.66703  0.25000  Biso   1.000  O
  O40      1.0000 0.75267  0.83297  0.75000  Biso   1.000  O
  O41      1.0000 0.25267  0.66703  0.25000  Biso   1.000  O
  O42      1.0000 0.24733  0.83297  0.75000  Biso   1.000  O
  O43      1.0000 0.00000  0.79244  0.25000  Biso   1.000  O
  O44      1.0000 0.50000  0.70756  0.75000  Biso   1.000  O
  O45      1.0000 0.75000  0.75000  0.00000  Biso   1.000  O
  O46      1.0000 0.75000  0.75000  0.50000  Biso   1.000  O
  O47      1.0000 0.25000  0.75000  0.50000  Biso   1.000  O
  O48      1.0000 0.25000  0.75000  0.00000  Biso   1.000  O
  Ir1      1.0000 0.50000  0.04085  0.25000  Biso   1.000  Ir
  Ir2      1.0000 0.00000  0.45915  0.75000  Biso   1.000  Ir
  Ir3      1.0000 0.50000  0.37627  0.49911  Biso   1.000  Ir
  Ir4      1.0000 0.00000  0.12373  0.99911  Biso   1.000  Ir
  Ir5      1.0000 0.50000  0.37627  0.00089  Biso   1.000  Ir
  Ir6      1.0000 0.00000  0.12373  0.50089  Biso   1.000  Ir
  Ir7      1.0000 0.00000  0.29326  0.25000  Biso   1.000  Ir
  Ir8      1.0000 0.50000  0.20674  0.75000  Biso   1.000  Ir
  Ir9      1.0000 0.00000  0.54085  0.25000  Biso   1.000  Ir
  Ir10     1.0000 0.50000  0.95915  0.75000  Biso   1.000  Ir
  Ir11     1.0000 0.00000  0.87627  0.49911  Biso   1.000  Ir
  Ir12     1.0000 0.50000  0.62373  0.99911  Biso   1.000  Ir
  Ir13     1.0000 0.00000  0.87627  0.00089  Biso   1.000  Ir
  Ir14     1.0000 0.50000  0.62373  0.50089  Biso   1.000  Ir
  Ir15     1.0000 0.50000  0.79326  0.25000  Biso   1.000  Ir
  Ir16     1.0000 0.00000  0.70674  0.75000  Biso   1.000  Ir
