data_image0
_cell_length_a       9.24458
_cell_length_b       20.393
_cell_length_c       14.9221
_cell_angle_alpha    90
_cell_angle_beta     90
_cell_angle_gamma    90

_symmetry_space_group_name_H-M    "P 1"
_symmetry_int_tables_number       1

loop_
  _symmetry_equiv_pos_as_xyz
  'x, y, z'

loop_
  _atom_site_label
  _atom_site_occupancy
  _atom_site_fract_x
  _atom_site_fract_y
  _atom_site_fract_z
  _atom_site_thermal_displace_type
  _atom_site_B_iso_or_equiv
  _atom_site_type_symbol
  O1       1.0000 0.98408  0.30363  0.00000  Biso   1.000  O
  O2       1.0000 0.51592  0.19637  0.00000  Biso   1.000  O
  O3       1.0000 0.01592  0.30363  0.50000  Biso   1.000  O
  O4       1.0000 0.48408  0.19637  0.50000  Biso   1.000  O
  O5       1.0000 0.89660  0.12289  0.87214  Biso   1.000  O
  O6       1.0000 0.60340  0.37711  0.87214  Biso   1.000  O
  O7       1.0000 0.10340  0.12289  0.62786  Biso   1.000  O
  O8       1.0000 0.39660  0.37711  0.62786  Biso   1.000  O
  O9       1.0000 0.60340  0.37711  0.12786  Biso   1.000  O
  O10      1.0000 0.89660  0.12289  0.12786  Biso   1.000  O
  O11      1.0000 0.39660  0.37711  0.37214  Biso   1.000  O
  O12      1.0000 0.10340  0.12289  0.37214  Biso   1.000  O
  O13      1.0000 0.27493  0.04745  0.87091  Biso   1.000  O
  O14      1.0000 0.22507  0.45255  0.87091  Biso   1.000  O
  O15      1.0000 0.72507  0.04745  0.62909  Biso   1.000  O
  O16      1.0000 0.77493  0.45255  0.62909  Biso   1.000  O
  O17      1.0000 0.22507  0.45255  0.12909  Biso   1.000  O
  O18      1.0000 0.27493  0.04745  0.12909  Biso   1.000  O
  O19      1.0000 0.77493  0.45255  0.37091  Biso   1.000  O
  O20      1.0000 0.72507  0.04745  0.37091  Biso   1.000  O
  O21      1.0000 0.25000  0.25000  0.82088  Biso   1.000  O
  O22      1.0000 0.75000  0.25000  0.67912  Biso   1.000  O
  O23      1.0000 0.25000  0.25000  0.17912  Biso   1.000  O
  O24      1.0000 0.75000  0.25000  0.32088  Biso   1.000  O
  O25      1.0000 0.48408  0.80363  0.00000  Biso   1.000  O
  O26      1.0000 0.01592  0.69637  0.00000  Biso   1.000  O
  O27      1.0000 0.51592  0.80363  0.50000  Biso   1.000  O
  O28      1.0000 0.98408  0.69637  0.50000  Biso   1.000  O
  O29      1.0000 0.39660  0.62289  0.87214  Biso   1.000  O
  O30      1.0000 0.10340  0.87711  0.87214  Biso   1.000  O
  O31      1.0000 0.60340  0.62289  0.62786  Biso   1.000  O
  O32      1.0000 0.89660  0.87711  0.62786  Biso   1.000  O
  O33      1.0000 0.10340  0.87711  0.12786  Biso   1.000  O
  O34      1.0000 0.39660  0.62289  0.12786  Biso   1.000  O
  O35      1.0000 0.89660  0.87711  0.37214  Biso   1.000  O
  O36      1.0000 0.60340  0.62289  0.37214  Biso   1.000  O
  O37      1.0000 0.77493  0.54745  0.87091  Biso   1.000  O
  O38      1.0000 0.72507  0.95255  0.87091  Biso   1.000  O
  O39      1.0000 0.22507  0.54745  0.62909  Biso   1.000  O
  O40      1.0000 0.27493  0.95255  0.62909  Biso   1.000  O
  O41      1.0000 0.72507  0.95255  0.12909  Biso   1.000  O
  O42      1.0000 0.77493  0.54745  0.12909  Biso   1.000  O
  O43      1.0000 0.27493  0.95255  0.37091  Biso   1.000  O
  O44      1.0000 0.22507  0.54745  0.37091  Biso   1.000  O
  O45      1.0000 0.75000  0.75000  0.82088  Biso   1.000  O
  O46      1.0000 0.25000  0.75000  0.67912  Biso   1.000  O
  O47      1.0000 0.75000  0.75000  0.17912  Biso   1.000  O
  O48      1.0000 0.25000  0.75000  0.32088  Biso   1.000  O
  Ir1      1.0000 0.17211  0.17208  0.00000  Biso   1.000  Ir
  Ir2      1.0000 0.32789  0.32792  0.00000  Biso   1.000  Ir
  Ir3      1.0000 0.82789  0.17208  0.50000  Biso   1.000  Ir
  Ir4      1.0000 0.67211  0.32792  0.50000  Biso   1.000  Ir
  Ir5      1.0000 0.00000  0.00000  0.00000  Biso   1.000  Ir
  Ir6      1.0000 0.00000  0.00000  0.50000  Biso   1.000  Ir
  Ir7      1.0000 0.00000  0.00000  0.25000  Biso   1.000  Ir
  Ir8      1.0000 0.00000  0.00000  0.75000  Biso   1.000  Ir
  Ir9      1.0000 0.67211  0.67208  0.00000  Biso   1.000  Ir
  Ir10     1.0000 0.82789  0.82792  0.00000  Biso   1.000  Ir
  Ir11     1.0000 0.32789  0.67208  0.50000  Biso   1.000  Ir
  Ir12     1.0000 0.17211  0.82792  0.50000  Biso   1.000  Ir
  Ir13     1.0000 0.50000  0.50000  0.00000  Biso   1.000  Ir
  Ir14     1.0000 0.50000  0.50000  0.50000  Biso   1.000  Ir
  Ir15     1.0000 0.50000  0.50000  0.25000  Biso   1.000  Ir
  Ir16     1.0000 0.50000  0.50000  0.75000  Biso   1.000  Ir
