data_image0
_cell_length_a       5.26251
_cell_length_b       5.47103
_cell_length_c       7.6215
_cell_angle_alpha    89.9841
_cell_angle_beta     89.9897
_cell_angle_gamma    89.9941

_symmetry_space_group_name_H-M    "P 1"
_symmetry_int_tables_number       1

loop_
  _symmetry_equiv_pos_as_xyz
  'x, y, z'

loop_
  _atom_site_label
  _atom_site_occupancy
  _atom_site_fract_x
  _atom_site_fract_y
  _atom_site_fract_z
  _atom_site_thermal_displace_type
  _atom_site_B_iso_or_equiv
  _atom_site_type_symbol
  O1       1.0000 0.39787  0.52217  0.75000  Biso   1.000  O
  O2       1.0000 0.60213  0.47784  0.25000  Biso   1.000  O
  O3       1.0000 0.80748  0.69950  0.94953  Biso   1.000  O
  O4       1.0000 0.19252  0.30051  0.05047  Biso   1.000  O
  O5       1.0000 0.80759  0.69960  0.55048  Biso   1.000  O
  O6       1.0000 0.19241  0.30040  0.44952  Biso   1.000  O
  O7       1.0000 0.30761  0.80039  0.44949  Biso   1.000  O
  O8       1.0000 0.69239  0.19961  0.55051  Biso   1.000  O
  O9       1.0000 0.30751  0.80047  0.05051  Biso   1.000  O
  O10      1.0000 0.69249  0.19953  0.94949  Biso   1.000  O
  O11      1.0000 0.89789  0.97787  0.24997  Biso   1.000  O
  O12      1.0000 0.10211  0.02213  0.75003  Biso   1.000  O
  Ir1      1.0000 0.50000  0.50000  0.50000  Biso   1.000  Ir
  Ir2      1.0000 0.50000  0.50000  0.00000  Biso   1.000  Ir
  Ir3      1.0000 0.00000  0.00000  0.50000  Biso   1.000  Ir
  Ir4      1.0000 0.00000  0.00000  0.00000  Biso   1.000  Ir
