data_image0
_cell_length_a       6.58325
_cell_length_b       6.58325
_cell_length_c       21.4106
_cell_angle_alpha    90
_cell_angle_beta     90
_cell_angle_gamma    120

_symmetry_space_group_name_H-M    "P 1"
_symmetry_int_tables_number       1

loop_
  _symmetry_equiv_pos_as_xyz
  'x, y, z'

loop_
  _atom_site_label
  _atom_site_occupancy
  _atom_site_fract_x
  _atom_site_fract_y
  _atom_site_fract_z
  _atom_site_thermal_displace_type
  _atom_site_B_iso_or_equiv
  _atom_site_type_symbol
  Ir1      1.0000 0.33333  0.66667  0.95385  Biso   1.000  Ir
  Ir2      1.0000 0.66667  0.33333  0.45385  Biso   1.000  Ir
  Ir3      1.0000 0.66667  0.33333  0.04615  Biso   1.000  Ir
  Ir4      1.0000 0.33333  0.66667  0.54615  Biso   1.000  Ir
  Ir5      1.0000 0.33333  0.66667  0.15107  Biso   1.000  Ir
  Ir6      1.0000 0.66667  0.33333  0.65107  Biso   1.000  Ir
  Ir7      1.0000 0.66667  0.33333  0.84893  Biso   1.000  Ir
  Ir8      1.0000 0.33333  0.66667  0.34893  Biso   1.000  Ir
  Ir9      1.0000 0.00000  0.00000  0.25000  Biso   1.000  Ir
  Ir10     1.0000 0.00000  0.00000  0.75000  Biso   1.000  Ir
  O1       1.0000 0.83223  0.66446  0.35042  Biso   1.000  O
  O2       1.0000 0.33554  0.16777  0.35042  Biso   1.000  O
  O3       1.0000 0.83223  0.16777  0.35042  Biso   1.000  O
  O4       1.0000 0.16777  0.33554  0.85042  Biso   1.000  O
  O5       1.0000 0.66446  0.83223  0.85042  Biso   1.000  O
  O6       1.0000 0.16777  0.83223  0.85042  Biso   1.000  O
  O7       1.0000 0.66446  0.83223  0.64958  Biso   1.000  O
  O8       1.0000 0.16777  0.33554  0.64958  Biso   1.000  O
  O9       1.0000 0.16777  0.83223  0.64958  Biso   1.000  O
  O10      1.0000 0.33554  0.16777  0.14958  Biso   1.000  O
  O11      1.0000 0.83223  0.66446  0.14958  Biso   1.000  O
  O12      1.0000 0.83223  0.16777  0.14958  Biso   1.000  O
  O13      1.0000 0.51065  0.02130  0.25000  Biso   1.000  O
  O14      1.0000 0.97870  0.48935  0.25000  Biso   1.000  O
  O15      1.0000 0.51065  0.48935  0.25000  Biso   1.000  O
  O16      1.0000 0.48935  0.97870  0.75000  Biso   1.000  O
  O17      1.0000 0.02130  0.51065  0.75000  Biso   1.000  O
  O18      1.0000 0.48935  0.51065  0.75000  Biso   1.000  O
  O19      1.0000 0.15629  0.31259  0.05119  Biso   1.000  O
  O20      1.0000 0.68741  0.84371  0.05119  Biso   1.000  O
  O21      1.0000 0.15629  0.84371  0.05119  Biso   1.000  O
  O22      1.0000 0.84371  0.68741  0.55119  Biso   1.000  O
  O23      1.0000 0.31259  0.15629  0.55119  Biso   1.000  O
  O24      1.0000 0.84371  0.15629  0.55119  Biso   1.000  O
  O25      1.0000 0.31259  0.15629  0.94881  Biso   1.000  O
  O26      1.0000 0.84371  0.68741  0.94881  Biso   1.000  O
  O27      1.0000 0.84371  0.15629  0.94881  Biso   1.000  O
  O28      1.0000 0.68741  0.84371  0.44881  Biso   1.000  O
  O29      1.0000 0.15629  0.31259  0.44881  Biso   1.000  O
  O30      1.0000 0.15629  0.84371  0.44881  Biso   1.000  O
