data_image0
_cell_length_a       18.8404
_cell_length_b       18.8404
_cell_length_c       8.56522
_cell_angle_alpha    90
_cell_angle_beta     90
_cell_angle_gamma    120

_symmetry_space_group_name_H-M    "P 1"
_symmetry_int_tables_number       1

loop_
  _symmetry_equiv_pos_as_xyz
  'x, y, z'

loop_
  _atom_site_label
  _atom_site_occupancy
  _atom_site_fract_x
  _atom_site_fract_y
  _atom_site_fract_z
  _atom_site_thermal_displace_type
  _atom_site_B_iso_or_equiv
  _atom_site_type_symbol
  O1       1.0000 0.51231  0.07890  0.32987  Biso   1.000  O
  O2       1.0000 0.25443  0.10008  0.99654  Biso   1.000  O
  O3       1.0000 0.23326  0.82102  0.66320  Biso   1.000  O
  O4       1.0000 0.15436  0.25443  0.00346  Biso   1.000  O
  O5       1.0000 0.41223  0.23326  0.33680  Biso   1.000  O
  O6       1.0000 0.43341  0.51231  0.67013  Biso   1.000  O
  O7       1.0000 0.34951  0.80323  0.34666  Biso   1.000  O
  O8       1.0000 0.53010  0.21294  0.01333  Biso   1.000  O
  O9       1.0000 0.12039  0.98382  0.67999  Biso   1.000  O
  O10      1.0000 0.31716  0.53010  0.98667  Biso   1.000  O
  O11      1.0000 0.13657  0.12039  0.32001  Biso   1.000  O
  O12      1.0000 0.54628  0.34951  0.65334  Biso   1.000  O
  O13      1.0000 0.36249  0.92058  0.96808  Biso   1.000  O
  O14      1.0000 0.41276  0.10858  0.63475  Biso   1.000  O
  O15      1.0000 0.22475  0.97085  0.30141  Biso   1.000  O
  O16      1.0000 0.30418  0.41276  0.36525  Biso   1.000  O
  O17      1.0000 0.25391  0.22475  0.69859  Biso   1.000  O
  O18      1.0000 0.44191  0.36249  0.03192  Biso   1.000  O
  O19      1.0000 0.17898  0.41223  0.66320  Biso   1.000  O
  O20      1.0000 0.92110  0.43341  0.32987  Biso   1.000  O
  O21      1.0000 0.89992  0.15436  0.99654  Biso   1.000  O
  O22      1.0000 0.82102  0.58777  0.33680  Biso   1.000  O
  O23      1.0000 0.07890  0.56659  0.67013  Biso   1.000  O
  O24      1.0000 0.10008  0.84564  0.00346  Biso   1.000  O
  O25      1.0000 0.01618  0.13657  0.67999  Biso   1.000  O
  O26      1.0000 0.19676  0.54628  0.34666  Biso   1.000  O
  O27      1.0000 0.78706  0.31715  0.01333  Biso   1.000  O
  O28      1.0000 0.98382  0.86343  0.32001  Biso   1.000  O
  O29      1.0000 0.80323  0.45372  0.65334  Biso   1.000  O
  O30      1.0000 0.21294  0.68285  0.98667  Biso   1.000  O
  O31      1.0000 0.02915  0.25391  0.30141  Biso   1.000  O
  O32      1.0000 0.07942  0.44191  0.96808  Biso   1.000  O
  O33      1.0000 0.89142  0.30418  0.63475  Biso   1.000  O
  O34      1.0000 0.97085  0.74609  0.69859  Biso   1.000  O
  O35      1.0000 0.92058  0.55809  0.03192  Biso   1.000  O
  O36      1.0000 0.10858  0.69582  0.36525  Biso   1.000  O
  O37      1.0000 0.84564  0.74557  0.99654  Biso   1.000  O
  O38      1.0000 0.58777  0.76674  0.66320  Biso   1.000  O
  O39      1.0000 0.56659  0.48769  0.32987  Biso   1.000  O
  O40      1.0000 0.48769  0.92110  0.67013  Biso   1.000  O
  O41      1.0000 0.74557  0.89992  0.00346  Biso   1.000  O
  O42      1.0000 0.76674  0.17898  0.33680  Biso   1.000  O
  O43      1.0000 0.68284  0.46990  0.01333  Biso   1.000  O
  O44      1.0000 0.86343  0.87961  0.67999  Biso   1.000  O
  O45      1.0000 0.45372  0.65049  0.34666  Biso   1.000  O
  O46      1.0000 0.65049  0.19676  0.65334  Biso   1.000  O
  O47      1.0000 0.46990  0.78706  0.98667  Biso   1.000  O
  O48      1.0000 0.87961  0.01618  0.32001  Biso   1.000  O
  O49      1.0000 0.69582  0.58724  0.63475  Biso   1.000  O
  O50      1.0000 0.74609  0.77524  0.30141  Biso   1.000  O
  O51      1.0000 0.55809  0.63751  0.96808  Biso   1.000  O
  O52      1.0000 0.63751  0.07942  0.03192  Biso   1.000  O
  O53      1.0000 0.58724  0.89142  0.36525  Biso   1.000  O
  O54      1.0000 0.77524  0.02915  0.69859  Biso   1.000  O
  Ir1      1.0000 0.34727  0.78374  0.80517  Biso   1.000  Ir
  Ir2      1.0000 0.54960  0.23020  0.47184  Biso   1.000  Ir
  Ir3      1.0000 0.10313  0.98606  0.13850  Biso   1.000  Ir
  Ir4      1.0000 0.31939  0.54960  0.52816  Biso   1.000  Ir
  Ir5      1.0000 0.11707  0.10313  0.86150  Biso   1.000  Ir
  Ir6      1.0000 0.56354  0.34727  0.19483  Biso   1.000  Ir
  Ir7      1.0000 0.01394  0.11707  0.13850  Biso   1.000  Ir
  Ir8      1.0000 0.21626  0.56354  0.80517  Biso   1.000  Ir
  Ir9      1.0000 0.76980  0.31939  0.47184  Biso   1.000  Ir
  Ir10     1.0000 0.98606  0.88293  0.86150  Biso   1.000  Ir
  Ir11     1.0000 0.78374  0.43646  0.19483  Biso   1.000  Ir
  Ir12     1.0000 0.23020  0.68060  0.52816  Biso   1.000  Ir
  Ir13     1.0000 0.68061  0.45040  0.47184  Biso   1.000  Ir
  Ir14     1.0000 0.88293  0.89687  0.13850  Biso   1.000  Ir
  Ir15     1.0000 0.43646  0.65273  0.80517  Biso   1.000  Ir
  Ir16     1.0000 0.65273  0.21626  0.19483  Biso   1.000  Ir
  Ir17     1.0000 0.45040  0.76980  0.52816  Biso   1.000  Ir
  Ir18     1.0000 0.89687  0.01394  0.86150  Biso   1.000  Ir
