data_image0
_cell_length_a       12.4363
_cell_length_b       12.4363
_cell_length_c       3.9002
_cell_angle_alpha    90
_cell_angle_beta     90
_cell_angle_gamma    90

_symmetry_space_group_name_H-M    "P 1"
_symmetry_int_tables_number       1

loop_
  _symmetry_equiv_pos_as_xyz
  'x, y, z'

loop_
  _atom_site_label
  _atom_site_occupancy
  _atom_site_fract_x
  _atom_site_fract_y
  _atom_site_fract_z
  _atom_site_thermal_displace_type
  _atom_site_B_iso_or_equiv
  _atom_site_type_symbol
  Ir1      1.0000 0.00000  0.50000  0.50000  Biso   1.000  Ir
  Ir2      1.0000 0.50000  0.00000  0.50000  Biso   1.000  Ir
  Ir3      1.0000 0.20728  0.07812  0.50000  Biso   1.000  Ir
  Ir4      1.0000 0.79272  0.92188  0.50000  Biso   1.000  Ir
  Ir5      1.0000 0.92188  0.20728  0.50000  Biso   1.000  Ir
  Ir6      1.0000 0.07812  0.79272  0.50000  Biso   1.000  Ir
  Ir7      1.0000 0.29272  0.57812  0.50000  Biso   1.000  Ir
  Ir8      1.0000 0.70728  0.42188  0.50000  Biso   1.000  Ir
  Ir9      1.0000 0.57812  0.70728  0.50000  Biso   1.000  Ir
  Ir10     1.0000 0.42188  0.29272  0.50000  Biso   1.000  Ir
  O1       1.0000 0.65674  0.00157  0.50000  Biso   1.000  O
  O2       1.0000 0.34326  0.99843  0.50000  Biso   1.000  O
  O3       1.0000 0.99843  0.65674  0.50000  Biso   1.000  O
  O4       1.0000 0.00157  0.34326  0.50000  Biso   1.000  O
  O5       1.0000 0.84326  0.50157  0.50000  Biso   1.000  O
  O6       1.0000 0.15674  0.49843  0.50000  Biso   1.000  O
  O7       1.0000 0.50157  0.15674  0.50000  Biso   1.000  O
  O8       1.0000 0.49843  0.84326  0.50000  Biso   1.000  O
  O9       1.0000 0.85944  0.06482  0.50000  Biso   1.000  O
  O10      1.0000 0.14056  0.93518  0.50000  Biso   1.000  O
  O11      1.0000 0.93518  0.85944  0.50000  Biso   1.000  O
  O12      1.0000 0.06482  0.14056  0.50000  Biso   1.000  O
  O13      1.0000 0.64056  0.56482  0.50000  Biso   1.000  O
  O14      1.0000 0.35944  0.43518  0.50000  Biso   1.000  O
  O15      1.0000 0.56482  0.35944  0.50000  Biso   1.000  O
  O16      1.0000 0.43518  0.64056  0.50000  Biso   1.000  O
  O17      1.0000 0.22200  0.72200  0.50000  Biso   1.000  O
  O18      1.0000 0.77800  0.27800  0.50000  Biso   1.000  O
  O19      1.0000 0.27800  0.22200  0.50000  Biso   1.000  O
  O20      1.0000 0.72200  0.77800  0.50000  Biso   1.000  O
  O21      1.0000 0.00000  0.50000  0.00000  Biso   1.000  O
  O22      1.0000 0.50000  0.00000  0.00000  Biso   1.000  O
  O23      1.0000 0.20983  0.08037  0.00000  Biso   1.000  O
  O24      1.0000 0.79017  0.91963  0.00000  Biso   1.000  O
  O25      1.0000 0.91963  0.20983  0.00000  Biso   1.000  O
  O26      1.0000 0.08037  0.79017  0.00000  Biso   1.000  O
  O27      1.0000 0.29017  0.58037  0.00000  Biso   1.000  O
  O28      1.0000 0.70983  0.41964  0.00000  Biso   1.000  O
  O29      1.0000 0.58037  0.70983  0.00000  Biso   1.000  O
  O30      1.0000 0.41964  0.29017  0.00000  Biso   1.000  O
