data_image0
_cell_length_a       10.659
_cell_length_b       7.86108
_cell_length_c       5.45092
_cell_angle_alpha    90
_cell_angle_beta     96.9387
_cell_angle_gamma    90

_symmetry_space_group_name_H-M    "P 1"
_symmetry_int_tables_number       1

loop_
  _symmetry_equiv_pos_as_xyz
  'x, y, z'

loop_
  _atom_site_label
  _atom_site_occupancy
  _atom_site_fract_x
  _atom_site_fract_y
  _atom_site_fract_z
  _atom_site_thermal_displace_type
  _atom_site_B_iso_or_equiv
  _atom_site_type_symbol
  O1       1.0000 0.63878  0.26617  0.31619  Biso   1.000  O
  O2       1.0000 0.36122  0.26617  0.68381  Biso   1.000  O
  O3       1.0000 0.36122  0.73383  0.68381  Biso   1.000  O
  O4       1.0000 0.63878  0.73383  0.31619  Biso   1.000  O
  O5       1.0000 0.50331  0.00000  0.29416  Biso   1.000  O
  O6       1.0000 0.49669  0.00000  0.70584  Biso   1.000  O
  O7       1.0000 0.13878  0.76617  0.31619  Biso   1.000  O
  O8       1.0000 0.86122  0.76617  0.68381  Biso   1.000  O
  O9       1.0000 0.86122  0.23383  0.68381  Biso   1.000  O
  O10      1.0000 0.13878  0.23383  0.31619  Biso   1.000  O
  O11      1.0000 0.00331  0.50000  0.29416  Biso   1.000  O
  O12      1.0000 0.99669  0.50000  0.70584  Biso   1.000  O
  Ir1      1.0000 0.83563  0.00000  0.16307  Biso   1.000  Ir
  Ir2      1.0000 0.16437  0.00000  0.83693  Biso   1.000  Ir
  Ir3      1.0000 0.33563  0.50000  0.16307  Biso   1.000  Ir
  Ir4      1.0000 0.66437  0.50000  0.83693  Biso   1.000  Ir
