data_image0
_cell_length_a       7.15239
_cell_length_b       10.173
_cell_length_c       6.60079
_cell_angle_alpha    90
_cell_angle_beta     90
_cell_angle_gamma    90

_symmetry_space_group_name_H-M    "P 1"
_symmetry_int_tables_number       1

loop_
  _symmetry_equiv_pos_as_xyz
  'x, y, z'

loop_
  _atom_site_label
  _atom_site_occupancy
  _atom_site_fract_x
  _atom_site_fract_y
  _atom_site_fract_z
  _atom_site_thermal_displace_type
  _atom_site_B_iso_or_equiv
  _atom_site_type_symbol
  O1       1.0000 0.46542  0.25000  0.14752  Biso   1.000  O
  O2       1.0000 0.03458  0.75000  0.64752  Biso   1.000  O
  O3       1.0000 0.53458  0.75000  0.85248  Biso   1.000  O
  O4       1.0000 0.96542  0.25000  0.35248  Biso   1.000  O
  O5       1.0000 0.17237  0.56738  0.17160  Biso   1.000  O
  O6       1.0000 0.32763  0.43262  0.67160  Biso   1.000  O
  O7       1.0000 0.82763  0.06738  0.82840  Biso   1.000  O
  O8       1.0000 0.67237  0.93262  0.32840  Biso   1.000  O
  O9       1.0000 0.82763  0.43262  0.82840  Biso   1.000  O
  O10      1.0000 0.67237  0.56738  0.32840  Biso   1.000  O
  O11      1.0000 0.17237  0.93262  0.17160  Biso   1.000  O
  O12      1.0000 0.32763  0.06738  0.67160  Biso   1.000  O
  Ir1      1.0000 0.61789  0.25000  0.57253  Biso   1.000  Ir
  Ir2      1.0000 0.88211  0.75000  0.07253  Biso   1.000  Ir
  Ir3      1.0000 0.38211  0.75000  0.42747  Biso   1.000  Ir
  Ir4      1.0000 0.11789  0.25000  0.92747  Biso   1.000  Ir
