data_image0
_cell_length_a       2.87004
_cell_length_b       9.58972
_cell_length_c       7.65027
_cell_angle_alpha    90
_cell_angle_beta     90
_cell_angle_gamma    90

_symmetry_space_group_name_H-M    "P 1"
_symmetry_int_tables_number       1

loop_
  _symmetry_equiv_pos_as_xyz
  'x, y, z'

loop_
  _atom_site_label
  _atom_site_occupancy
  _atom_site_fract_x
  _atom_site_fract_y
  _atom_site_fract_z
  _atom_site_thermal_displace_type
  _atom_site_B_iso_or_equiv
  _atom_site_type_symbol
  Ir1      1.0000 0.00000  0.25645  0.25000  Biso   1.000  Ir
  Ir2      1.0000 0.50000  0.24355  0.75000  Biso   1.000  Ir
  Ir3      1.0000 0.50000  0.75645  0.25000  Biso   1.000  Ir
  Ir4      1.0000 0.00000  0.74355  0.75000  Biso   1.000  Ir
  O1       1.0000 0.50000  0.36455  0.43900  Biso   1.000  O
  O2       1.0000 0.00000  0.13545  0.93900  Biso   1.000  O
  O3       1.0000 0.50000  0.36455  0.06100  Biso   1.000  O
  O4       1.0000 0.00000  0.13545  0.56100  Biso   1.000  O
  O5       1.0000 0.50000  0.06945  0.25000  Biso   1.000  O
  O6       1.0000 0.00000  0.43055  0.75000  Biso   1.000  O
  O7       1.0000 0.00000  0.86455  0.43900  Biso   1.000  O
  O8       1.0000 0.50000  0.63545  0.93900  Biso   1.000  O
  O9       1.0000 0.00000  0.86455  0.06100  Biso   1.000  O
  O10      1.0000 0.50000  0.63545  0.56100  Biso   1.000  O
  O11      1.0000 0.00000  0.56945  0.25000  Biso   1.000  O
  O12      1.0000 0.50000  0.93055  0.75000  Biso   1.000  O
