data_image0
_cell_length_a       7.05685
_cell_length_b       7.05685
_cell_length_c       31.2927
_cell_angle_alpha    90
_cell_angle_beta     90
_cell_angle_gamma    120

_symmetry_space_group_name_H-M    "P 1"
_symmetry_int_tables_number       1

loop_
  _symmetry_equiv_pos_as_xyz
  'x, y, z'

loop_
  _atom_site_label
  _atom_site_occupancy
  _atom_site_fract_x
  _atom_site_fract_y
  _atom_site_fract_z
  _atom_site_thermal_displace_type
  _atom_site_B_iso_or_equiv
  _atom_site_type_symbol
  Ir1      1.0000 0.33333  0.66667  0.45823  Biso   1.000  Ir
  Ir2      1.0000 0.66667  0.33333  0.54177  Biso   1.000  Ir
  Ir3      1.0000 0.00000  0.00000  0.37485  Biso   1.000  Ir
  Ir4      1.0000 0.00000  0.00000  0.62515  Biso   1.000  Ir
  Ir5      1.0000 0.00000  0.00000  0.79157  Biso   1.000  Ir
  Ir6      1.0000 0.33333  0.66667  0.87510  Biso   1.000  Ir
  Ir7      1.0000 0.66667  0.33333  0.70818  Biso   1.000  Ir
  Ir8      1.0000 0.66667  0.33333  0.95848  Biso   1.000  Ir
  Ir9      1.0000 0.66667  0.33333  0.12490  Biso   1.000  Ir
  Ir10     1.0000 0.00000  0.00000  0.20843  Biso   1.000  Ir
  Ir11     1.0000 0.33333  0.66667  0.04152  Biso   1.000  Ir
  Ir12     1.0000 0.33333  0.66667  0.29182  Biso   1.000  Ir
  O1       1.0000 0.33972  0.00000  0.50000  Biso   1.000  O
  O2       1.0000 0.00000  0.33972  0.50000  Biso   1.000  O
  O3       1.0000 0.66028  0.66028  0.50000  Biso   1.000  O
  O4       1.0000 0.00547  0.67303  0.41691  Biso   1.000  O
  O5       1.0000 0.32697  0.33244  0.41691  Biso   1.000  O
  O6       1.0000 0.66756  0.99453  0.41691  Biso   1.000  O
  O7       1.0000 0.67303  0.00547  0.58309  Biso   1.000  O
  O8       1.0000 0.33244  0.32697  0.58309  Biso   1.000  O
  O9       1.0000 0.99453  0.66756  0.58309  Biso   1.000  O
  O10      1.0000 0.67234  0.66667  0.66667  Biso   1.000  O
  O11      1.0000 0.33333  0.00567  0.66667  Biso   1.000  O
  O12      1.0000 0.99433  0.32766  0.66667  Biso   1.000  O
  O13      1.0000 0.00639  0.33333  0.83333  Biso   1.000  O
  O14      1.0000 0.66667  0.67305  0.83333  Biso   1.000  O
  O15      1.0000 0.32695  0.99361  0.83333  Biso   1.000  O
  O16      1.0000 0.67214  0.00636  0.75024  Biso   1.000  O
  O17      1.0000 0.99364  0.66577  0.75024  Biso   1.000  O
  O18      1.0000 0.33423  0.32786  0.75024  Biso   1.000  O
  O19      1.0000 0.33970  0.33880  0.91643  Biso   1.000  O
  O20      1.0000 0.99911  0.66030  0.91643  Biso   1.000  O
  O21      1.0000 0.66120  0.00089  0.91643  Biso   1.000  O
  O22      1.0000 0.33901  0.00000  0.00000  Biso   1.000  O
  O23      1.0000 0.00000  0.33901  0.00000  Biso   1.000  O
  O24      1.0000 0.66099  0.66099  0.00000  Biso   1.000  O
  O25      1.0000 0.67305  0.66667  0.16667  Biso   1.000  O
  O26      1.0000 0.33333  0.00639  0.16667  Biso   1.000  O
  O27      1.0000 0.99361  0.32695  0.16667  Biso   1.000  O
  O28      1.0000 0.33880  0.33970  0.08357  Biso   1.000  O
  O29      1.0000 0.66030  0.99911  0.08357  Biso   1.000  O
  O30      1.0000 0.00089  0.66120  0.08357  Biso   1.000  O
  O31      1.0000 0.00636  0.67214  0.24976  Biso   1.000  O
  O32      1.0000 0.66577  0.99364  0.24976  Biso   1.000  O
  O33      1.0000 0.32786  0.33423  0.24976  Biso   1.000  O
  O34      1.0000 0.00567  0.33333  0.33333  Biso   1.000  O
  O35      1.0000 0.66667  0.67234  0.33333  Biso   1.000  O
  O36      1.0000 0.32766  0.99433  0.33333  Biso   1.000  O
