data_image0
_cell_length_a       6.33169
_cell_length_b       7.03549
_cell_length_c       7.06781
_cell_angle_alpha    103.358
_cell_angle_beta     107.658
_cell_angle_gamma    99.5034

_symmetry_space_group_name_H-M    "P 1"
_symmetry_int_tables_number       1

loop_
  _symmetry_equiv_pos_as_xyz
  'x, y, z'

loop_
  _atom_site_label
  _atom_site_occupancy
  _atom_site_fract_x
  _atom_site_fract_y
  _atom_site_fract_z
  _atom_site_thermal_displace_type
  _atom_site_B_iso_or_equiv
  _atom_site_type_symbol
  Ir1      1.0000 0.79381  0.78202  0.65407  Biso   1.000  Ir
  Ir2      1.0000 0.20619  0.21798  0.34593  Biso   1.000  Ir
  Ir3      1.0000 0.00419  0.67206  0.17082  Biso   1.000  Ir
  Ir4      1.0000 0.99582  0.32794  0.82918  Biso   1.000  Ir
  O1       1.0000 0.27422  0.89711  0.29540  Biso   1.000  O
  O2       1.0000 0.72578  0.10289  0.70460  Biso   1.000  O
  O3       1.0000 0.16094  0.85533  0.69734  Biso   1.000  O
  O4       1.0000 0.83906  0.14467  0.30266  Biso   1.000  O
  O5       1.0000 0.79006  0.80440  0.95662  Biso   1.000  O
  O6       1.0000 0.20994  0.19560  0.04338  Biso   1.000  O
  O7       1.0000 0.73801  0.70337  0.31370  Biso   1.000  O
  O8       1.0000 0.26199  0.29663  0.68630  Biso   1.000  O
  O9       1.0000 0.22891  0.58713  0.98093  Biso   1.000  O
  O10      1.0000 0.77109  0.41287  0.01907  Biso   1.000  O
  O11      1.0000 0.21804  0.52256  0.37110  Biso   1.000  O
  O12      1.0000 0.78196  0.47744  0.62890  Biso   1.000  O
