data_image0
_cell_length_a       6.42853
_cell_length_b       6.42853
_cell_length_c       18.7113
_cell_angle_alpha    90
_cell_angle_beta     90
_cell_angle_gamma    120

_symmetry_space_group_name_H-M    "P 1"
_symmetry_int_tables_number       1

loop_
  _symmetry_equiv_pos_as_xyz
  'x, y, z'

loop_
  _atom_site_label
  _atom_site_occupancy
  _atom_site_fract_x
  _atom_site_fract_y
  _atom_site_fract_z
  _atom_site_thermal_displace_type
  _atom_site_B_iso_or_equiv
  _atom_site_type_symbol
  O1       1.0000 0.50000  0.00000  0.00000  Biso   1.000  O
  O2       1.0000 0.00000  0.50000  0.00000  Biso   1.000  O
  O3       1.0000 0.50000  0.50000  0.00000  Biso   1.000  O
  O4       1.0000 0.49089  0.50911  0.22323  Biso   1.000  O
  O5       1.0000 0.49089  0.98178  0.22323  Biso   1.000  O
  O6       1.0000 0.01822  0.50911  0.22323  Biso   1.000  O
  O7       1.0000 0.17578  0.82422  0.11011  Biso   1.000  O
  O8       1.0000 0.64845  0.82422  0.11011  Biso   1.000  O
  O9       1.0000 0.17577  0.35155  0.11011  Biso   1.000  O
  O10      1.0000 0.16667  0.33333  0.33333  Biso   1.000  O
  O11      1.0000 0.66667  0.83333  0.33333  Biso   1.000  O
  O12      1.0000 0.16667  0.83333  0.33333  Biso   1.000  O
  O13      1.0000 0.15756  0.84244  0.55656  Biso   1.000  O
  O14      1.0000 0.15756  0.31512  0.55656  Biso   1.000  O
  O15      1.0000 0.68488  0.84244  0.55656  Biso   1.000  O
  O16      1.0000 0.84244  0.15756  0.44344  Biso   1.000  O
  O17      1.0000 0.31512  0.15756  0.44344  Biso   1.000  O
  O18      1.0000 0.84244  0.68488  0.44344  Biso   1.000  O
  O19      1.0000 0.83333  0.66667  0.66667  Biso   1.000  O
  O20      1.0000 0.33333  0.16667  0.66667  Biso   1.000  O
  O21      1.0000 0.83333  0.16667  0.66667  Biso   1.000  O
  O22      1.0000 0.82423  0.17577  0.88989  Biso   1.000  O
  O23      1.0000 0.82423  0.64845  0.88989  Biso   1.000  O
  O24      1.0000 0.35155  0.17577  0.88989  Biso   1.000  O
  O25      1.0000 0.50911  0.49089  0.77677  Biso   1.000  O
  O26      1.0000 0.98178  0.49089  0.77677  Biso   1.000  O
  O27      1.0000 0.50911  0.01822  0.77677  Biso   1.000  O
  Ir1      1.0000 0.00000  0.00000  0.00000  Biso   1.000  Ir
  Ir2      1.0000 0.00000  0.00000  0.21854  Biso   1.000  Ir
  Ir3      1.0000 0.66667  0.33333  0.11479  Biso   1.000  Ir
  Ir4      1.0000 0.66667  0.33333  0.33333  Biso   1.000  Ir
  Ir5      1.0000 0.66667  0.33333  0.55187  Biso   1.000  Ir
  Ir6      1.0000 0.33333  0.66667  0.44813  Biso   1.000  Ir
  Ir7      1.0000 0.33333  0.66667  0.66667  Biso   1.000  Ir
  Ir8      1.0000 0.33333  0.66667  0.88521  Biso   1.000  Ir
  Ir9      1.0000 0.00000  0.00000  0.78146  Biso   1.000  Ir
