data_image0
_cell_length_a       5.91963
_cell_length_b       5.91963
_cell_length_c       13.3062
_cell_angle_alpha    90
_cell_angle_beta     90
_cell_angle_gamma    120

_symmetry_space_group_name_H-M    "P 1"
_symmetry_int_tables_number       1

loop_
  _symmetry_equiv_pos_as_xyz
  'x, y, z'

loop_
  _atom_site_label
  _atom_site_occupancy
  _atom_site_fract_x
  _atom_site_fract_y
  _atom_site_fract_z
  _atom_site_thermal_displace_type
  _atom_site_B_iso_or_equiv
  _atom_site_type_symbol
  O1       1.0000 0.66676  0.67242  0.08331  Biso   1.000  O
  O2       1.0000 0.32758  0.99433  0.08331  Biso   1.000  O
  O3       1.0000 0.00567  0.33324  0.08331  Biso   1.000  O
  O4       1.0000 0.99991  0.66091  0.25003  Biso   1.000  O
  O5       1.0000 0.33909  0.33900  0.25003  Biso   1.000  O
  O6       1.0000 0.66100  0.00009  0.25003  Biso   1.000  O
  O7       1.0000 0.33342  0.00576  0.41664  Biso   1.000  O
  O8       1.0000 0.99424  0.32767  0.41664  Biso   1.000  O
  O9       1.0000 0.67233  0.66658  0.41664  Biso   1.000  O
  O10      1.0000 0.66658  0.99424  0.58336  Biso   1.000  O
  O11      1.0000 0.00576  0.67233  0.58336  Biso   1.000  O
  O12      1.0000 0.32767  0.33342  0.58336  Biso   1.000  O
  O13      1.0000 0.00009  0.33909  0.74997  Biso   1.000  O
  O14      1.0000 0.66091  0.66100  0.74997  Biso   1.000  O
  O15      1.0000 0.33900  0.99991  0.74997  Biso   1.000  O
  O16      1.0000 0.33324  0.32758  0.91669  Biso   1.000  O
  O17      1.0000 0.67242  0.00567  0.91669  Biso   1.000  O
  O18      1.0000 0.99433  0.66676  0.91669  Biso   1.000  O
  Ir1      1.0000 0.33333  0.66667  0.16667  Biso   1.000  Ir
  Ir2      1.0000 0.66667  0.33333  0.33333  Biso   1.000  Ir
  Ir3      1.0000 0.00000  0.00000  0.50000  Biso   1.000  Ir
  Ir4      1.0000 0.33333  0.66667  0.66667  Biso   1.000  Ir
  Ir5      1.0000 0.66667  0.33333  0.83333  Biso   1.000  Ir
  Ir6      1.0000 0.00000  0.00000  0.00000  Biso   1.000  Ir
