data_image0
_cell_length_a       9.59232
_cell_length_b       9.59232
_cell_length_c       21.8828
_cell_angle_alpha    90
_cell_angle_beta     90
_cell_angle_gamma    120

_symmetry_space_group_name_H-M    "P 1"
_symmetry_int_tables_number       1

loop_
  _symmetry_equiv_pos_as_xyz
  'x, y, z'

loop_
  _atom_site_label
  _atom_site_occupancy
  _atom_site_fract_x
  _atom_site_fract_y
  _atom_site_fract_z
  _atom_site_thermal_displace_type
  _atom_site_B_iso_or_equiv
  _atom_site_type_symbol
  O1       1.0000 0.68539  0.01930  0.08629  Biso   1.000  O
  O2       1.0000 0.98070  0.66609  0.08629  Biso   1.000  O
  O3       1.0000 0.33391  0.31461  0.08629  Biso   1.000  O
  O4       1.0000 0.98128  0.31404  0.24705  Biso   1.000  O
  O5       1.0000 0.68596  0.66724  0.24705  Biso   1.000  O
  O6       1.0000 0.33276  0.01872  0.24705  Biso   1.000  O
  O7       1.0000 0.35205  0.35263  0.41962  Biso   1.000  O
  O8       1.0000 0.64737  0.99942  0.41962  Biso   1.000  O
  O9       1.0000 0.00058  0.64795  0.41962  Biso   1.000  O
  O10      1.0000 0.64795  0.64737  0.58038  Biso   1.000  O
  O11      1.0000 0.35263  0.00058  0.58038  Biso   1.000  O
  O12      1.0000 0.99942  0.35205  0.58038  Biso   1.000  O
  O13      1.0000 0.01872  0.68597  0.75295  Biso   1.000  O
  O14      1.0000 0.31404  0.33276  0.75295  Biso   1.000  O
  O15      1.0000 0.66724  0.98128  0.75295  Biso   1.000  O
  O16      1.0000 0.31461  0.98070  0.91372  Biso   1.000  O
  O17      1.0000 0.01930  0.33391  0.91372  Biso   1.000  O
  O18      1.0000 0.66609  0.68539  0.91372  Biso   1.000  O
  Ir1      1.0000 0.33333  0.66667  0.83307  Biso   1.000  Ir
  Ir2      1.0000 0.33333  0.66667  0.50026  Biso   1.000  Ir
  Ir3      1.0000 0.00000  0.00000  0.16641  Biso   1.000  Ir
  Ir4      1.0000 0.00000  0.00000  0.83359  Biso   1.000  Ir
  Ir5      1.0000 0.66667  0.33333  0.49974  Biso   1.000  Ir
  Ir6      1.0000 0.66667  0.33333  0.16693  Biso   1.000  Ir
