data_image0
_cell_length_a       16.801
_cell_length_b       5.74568
_cell_length_c       5.70235
_cell_angle_alpha    90
_cell_angle_beta     90
_cell_angle_gamma    90

_symmetry_space_group_name_H-M    "P 1"
_symmetry_int_tables_number       1

loop_
  _symmetry_equiv_pos_as_xyz
  'x, y, z'

loop_
  _atom_site_label
  _atom_site_occupancy
  _atom_site_fract_x
  _atom_site_fract_y
  _atom_site_fract_z
  _atom_site_thermal_displace_type
  _atom_site_B_iso_or_equiv
  _atom_site_type_symbol
  O1       1.0000 0.00000  0.68216  0.18197  Biso   1.000  O
  O2       1.0000 0.00000  0.81784  0.68197  Biso   1.000  O
  O3       1.0000 0.00000  0.18216  0.31803  Biso   1.000  O
  O4       1.0000 0.00000  0.31784  0.81803  Biso   1.000  O
  O5       1.0000 0.38063  0.50000  0.00000  Biso   1.000  O
  O6       1.0000 0.11937  0.50000  0.50000  Biso   1.000  O
  O7       1.0000 0.11937  0.00000  0.00000  Biso   1.000  O
  O8       1.0000 0.38063  0.00000  0.50000  Biso   1.000  O
  O9       1.0000 0.25000  0.75220  0.25000  Biso   1.000  O
  O10      1.0000 0.25000  0.24780  0.75000  Biso   1.000  O
  O11      1.0000 0.25000  0.74780  0.75000  Biso   1.000  O
  O12      1.0000 0.25000  0.25220  0.25000  Biso   1.000  O
  O13      1.0000 0.50000  0.18216  0.18197  Biso   1.000  O
  O14      1.0000 0.50000  0.31784  0.68197  Biso   1.000  O
  O15      1.0000 0.50000  0.68216  0.31803  Biso   1.000  O
  O16      1.0000 0.50000  0.81784  0.81803  Biso   1.000  O
  O17      1.0000 0.88063  0.00000  0.00000  Biso   1.000  O
  O18      1.0000 0.61937  0.00000  0.50000  Biso   1.000  O
  O19      1.0000 0.61937  0.50000  0.00000  Biso   1.000  O
  O20      1.0000 0.88063  0.50000  0.50000  Biso   1.000  O
  O21      1.0000 0.75000  0.25220  0.25000  Biso   1.000  O
  O22      1.0000 0.75000  0.74780  0.75000  Biso   1.000  O
  O23      1.0000 0.75000  0.24780  0.75000  Biso   1.000  O
  O24      1.0000 0.75000  0.75220  0.25000  Biso   1.000  O
  Ir1      1.0000 0.36386  0.00000  0.00000  Biso   1.000  Ir
  Ir2      1.0000 0.13614  0.00000  0.50000  Biso   1.000  Ir
  Ir3      1.0000 0.13614  0.50000  0.00000  Biso   1.000  Ir
  Ir4      1.0000 0.36386  0.50000  0.50000  Biso   1.000  Ir
  Ir5      1.0000 0.86386  0.50000  0.00000  Biso   1.000  Ir
  Ir6      1.0000 0.63614  0.50000  0.50000  Biso   1.000  Ir
  Ir7      1.0000 0.63614  0.00000  0.00000  Biso   1.000  Ir
  Ir8      1.0000 0.86386  0.00000  0.50000  Biso   1.000  Ir
