data_image0
_cell_length_a       3.71187
_cell_length_b       7.05142
_cell_length_c       3.32368
_cell_angle_alpha    90
_cell_angle_beta     94.3355
_cell_angle_gamma    90

_symmetry_space_group_name_H-M    "P 1"
_symmetry_int_tables_number       1

loop_
  _symmetry_equiv_pos_as_xyz
  'x, y, z'

loop_
  _atom_site_label
  _atom_site_occupancy
  _atom_site_fract_x
  _atom_site_fract_y
  _atom_site_fract_z
  _atom_site_thermal_displace_type
  _atom_site_B_iso_or_equiv
  _atom_site_type_symbol
  O1       1.0000 0.76328  0.24413  0.18291  Biso   1.000  O
  O2       1.0000 0.23672  0.24413  0.81709  Biso   1.000  O
  O3       1.0000 0.50000  0.00670  0.50000  Biso   1.000  O
  O4       1.0000 0.26328  0.74413  0.18291  Biso   1.000  O
  O5       1.0000 0.73672  0.74413  0.81709  Biso   1.000  O
  O6       1.0000 0.00000  0.50670  0.50000  Biso   1.000  O
  Ir1      1.0000 0.00000  0.00504  0.00000  Biso   1.000  Ir
  Ir2      1.0000 0.50000  0.50504  0.00000  Biso   1.000  Ir
