data_image0
_cell_length_a       9.61812
_cell_length_b       9.61812
_cell_length_c       4.76786
_cell_angle_alpha    90
_cell_angle_beta     90
_cell_angle_gamma    90

_symmetry_space_group_name_H-M    "P 1"
_symmetry_int_tables_number       1

loop_
  _symmetry_equiv_pos_as_xyz
  'x, y, z'

loop_
  _atom_site_label
  _atom_site_occupancy
  _atom_site_fract_x
  _atom_site_fract_y
  _atom_site_fract_z
  _atom_site_thermal_displace_type
  _atom_site_B_iso_or_equiv
  _atom_site_type_symbol
  Ir1      1.0000 0.79210  0.46508  0.99620  Biso   1.000  Ir
  Ir2      1.0000 0.20790  0.53492  0.99620  Biso   1.000  Ir
  Ir3      1.0000 0.46508  0.20790  0.00380  Biso   1.000  Ir
  Ir4      1.0000 0.53492  0.79210  0.00380  Biso   1.000  Ir
  Ir5      1.0000 0.29210  0.96508  0.49619  Biso   1.000  Ir
  Ir6      1.0000 0.70790  0.03492  0.49619  Biso   1.000  Ir
  Ir7      1.0000 0.96508  0.70790  0.50380  Biso   1.000  Ir
  Ir8      1.0000 0.03492  0.29210  0.50380  Biso   1.000  Ir
  O1       1.0000 0.41158  0.60606  0.71388  Biso   1.000  O
  O2       1.0000 0.58842  0.39394  0.71388  Biso   1.000  O
  O3       1.0000 0.60606  0.58842  0.28612  Biso   1.000  O
  O4       1.0000 0.39394  0.41158  0.28612  Biso   1.000  O
  O5       1.0000 0.32397  0.71950  0.23875  Biso   1.000  O
  O6       1.0000 0.67603  0.28050  0.23875  Biso   1.000  O
  O7       1.0000 0.71950  0.67603  0.76124  Biso   1.000  O
  O8       1.0000 0.28050  0.32397  0.76124  Biso   1.000  O
  O9       1.0000 0.85224  0.47370  0.48585  Biso   1.000  O
  O10      1.0000 0.14776  0.52630  0.48585  Biso   1.000  O
  O11      1.0000 0.47370  0.14776  0.51415  Biso   1.000  O
  O12      1.0000 0.52630  0.85224  0.51415  Biso   1.000  O
  O13      1.0000 0.91158  0.10606  0.21388  Biso   1.000  O
  O14      1.0000 0.08842  0.89394  0.21388  Biso   1.000  O
  O15      1.0000 0.10606  0.08842  0.78612  Biso   1.000  O
  O16      1.0000 0.89394  0.91158  0.78612  Biso   1.000  O
  O17      1.0000 0.82397  0.21950  0.73876  Biso   1.000  O
  O18      1.0000 0.17603  0.78050  0.73876  Biso   1.000  O
  O19      1.0000 0.21950  0.17603  0.26125  Biso   1.000  O
  O20      1.0000 0.78050  0.82397  0.26125  Biso   1.000  O
  O21      1.0000 0.35224  0.97370  0.98585  Biso   1.000  O
  O22      1.0000 0.64776  0.02630  0.98585  Biso   1.000  O
  O23      1.0000 0.97370  0.64776  0.01415  Biso   1.000  O
  O24      1.0000 0.02630  0.35224  0.01415  Biso   1.000  O
