data_image0
_cell_length_a       10.7209
_cell_length_b       10.7209
_cell_length_c       4.69512
_cell_angle_alpha    90
_cell_angle_beta     90
_cell_angle_gamma    120

_symmetry_space_group_name_H-M    "P 1"
_symmetry_int_tables_number       1

loop_
  _symmetry_equiv_pos_as_xyz
  'x, y, z'

loop_
  _atom_site_label
  _atom_site_occupancy
  _atom_site_fract_x
  _atom_site_fract_y
  _atom_site_fract_z
  _atom_site_thermal_displace_type
  _atom_site_B_iso_or_equiv
  _atom_site_type_symbol
  O1       1.0000 0.11419  0.87385  0.76305  Biso   1.000  O
  O2       1.0000 0.12615  0.24034  0.76305  Biso   1.000  O
  O3       1.0000 0.75966  0.88581  0.76305  Biso   1.000  O
  O4       1.0000 0.87385  0.11419  0.23695  Biso   1.000  O
  O5       1.0000 0.24034  0.12615  0.23695  Biso   1.000  O
  O6       1.0000 0.88581  0.75966  0.23695  Biso   1.000  O
  O7       1.0000 0.22632  0.79778  0.27131  Biso   1.000  O
  O8       1.0000 0.20222  0.42854  0.27131  Biso   1.000  O
  O9       1.0000 0.57146  0.77368  0.27131  Biso   1.000  O
  O10      1.0000 0.79778  0.22632  0.72869  Biso   1.000  O
  O11      1.0000 0.42854  0.20222  0.72869  Biso   1.000  O
  O12      1.0000 0.77368  0.57146  0.72869  Biso   1.000  O
  O13      1.0000 0.45838  0.90409  0.75931  Biso   1.000  O
  O14      1.0000 0.09591  0.55428  0.75931  Biso   1.000  O
  O15      1.0000 0.44572  0.54162  0.75931  Biso   1.000  O
  O16      1.0000 0.90409  0.45838  0.24069  Biso   1.000  O
  O17      1.0000 0.55428  0.09591  0.24069  Biso   1.000  O
  O18      1.0000 0.54162  0.44572  0.24069  Biso   1.000  O
  Ir1      1.0000 0.33013  0.00000  0.50000  Biso   1.000  Ir
  Ir2      1.0000 0.00000  0.33013  0.50000  Biso   1.000  Ir
  Ir3      1.0000 0.66987  0.66987  0.50000  Biso   1.000  Ir
  Ir4      1.0000 0.66304  0.00000  0.00000  Biso   1.000  Ir
  Ir5      1.0000 0.00000  0.66304  0.00000  Biso   1.000  Ir
  Ir6      1.0000 0.33696  0.33696  0.00000  Biso   1.000  Ir
