data_image0
_cell_length_a       4.98843
_cell_length_b       4.99707
_cell_length_c       4.99778
_cell_angle_alpha    89.7694
_cell_angle_beta     89.6496
_cell_angle_gamma    89.9598

_symmetry_space_group_name_H-M    "P 1"
_symmetry_int_tables_number       1

loop_
  _symmetry_equiv_pos_as_xyz
  'x, y, z'

loop_
  _atom_site_label
  _atom_site_occupancy
  _atom_site_fract_x
  _atom_site_fract_y
  _atom_site_fract_z
  _atom_site_thermal_displace_type
  _atom_site_B_iso_or_equiv
  _atom_site_type_symbol
  O1       1.0000 0.50028  0.49938  0.00024  Biso   1.000  O
  O2       1.0000 0.99985  0.50001  0.50009  Biso   1.000  O
  O3       1.0000 0.49976  0.00032  0.49987  Biso   1.000  O
  Ir1      1.0000 0.00011  0.00029  0.99980  Biso   1.000  Ir
