data_image0
_cell_length_a       12.5852
_cell_length_b       12.5852
_cell_length_c       9.42356
_cell_angle_alpha    90
_cell_angle_beta     90
_cell_angle_gamma    90

_symmetry_space_group_name_H-M    "P 1"
_symmetry_int_tables_number       1

loop_
  _symmetry_equiv_pos_as_xyz
  'x, y, z'

loop_
  _atom_site_label
  _atom_site_occupancy
  _atom_site_fract_x
  _atom_site_fract_y
  _atom_site_fract_z
  _atom_site_thermal_displace_type
  _atom_site_B_iso_or_equiv
  _atom_site_type_symbol
  Ir1      1.0000 0.00000  0.75000  0.12500  Biso   1.000  Ir
  Ir2      1.0000 0.00000  0.25000  0.12500  Biso   1.000  Ir
  Ir3      1.0000 0.25000  0.50000  0.37500  Biso   1.000  Ir
  Ir4      1.0000 0.75000  0.50000  0.37500  Biso   1.000  Ir
  Ir5      1.0000 0.50000  0.25000  0.62500  Biso   1.000  Ir
  Ir6      1.0000 0.50000  0.75000  0.62500  Biso   1.000  Ir
  Ir7      1.0000 0.75000  0.00000  0.87500  Biso   1.000  Ir
  Ir8      1.0000 0.25000  0.00000  0.87500  Biso   1.000  Ir
  O1       1.0000 0.18202  0.51328  0.05668  Biso   1.000  O
  O2       1.0000 0.81798  0.48672  0.05668  Biso   1.000  O
  O3       1.0000 0.98672  0.18202  0.80668  Biso   1.000  O
  O4       1.0000 0.01328  0.81798  0.80668  Biso   1.000  O
  O5       1.0000 0.31798  0.48672  0.69332  Biso   1.000  O
  O6       1.0000 0.68202  0.51328  0.69332  Biso   1.000  O
  O7       1.0000 0.01328  0.31798  0.44332  Biso   1.000  O
  O8       1.0000 0.98672  0.68202  0.44332  Biso   1.000  O
  O9       1.0000 0.00000  0.75000  0.62500  Biso   1.000  O
  O10      1.0000 0.00000  0.25000  0.62500  Biso   1.000  O
  O11      1.0000 0.25000  0.50000  0.87500  Biso   1.000  O
  O12      1.0000 0.75000  0.50000  0.87500  Biso   1.000  O
  O13      1.0000 0.68202  0.01328  0.55668  Biso   1.000  O
  O14      1.0000 0.31798  0.98672  0.55668  Biso   1.000  O
  O15      1.0000 0.48672  0.68202  0.30668  Biso   1.000  O
  O16      1.0000 0.51328  0.31798  0.30668  Biso   1.000  O
  O17      1.0000 0.81798  0.98672  0.19332  Biso   1.000  O
  O18      1.0000 0.18202  0.01328  0.19332  Biso   1.000  O
  O19      1.0000 0.51328  0.81798  0.94332  Biso   1.000  O
  O20      1.0000 0.48672  0.18202  0.94332  Biso   1.000  O
  O21      1.0000 0.50000  0.25000  0.12500  Biso   1.000  O
  O22      1.0000 0.50000  0.75000  0.12500  Biso   1.000  O
  O23      1.0000 0.75000  0.00000  0.37500  Biso   1.000  O
  O24      1.0000 0.25000  0.00000  0.37500  Biso   1.000  O
