data_image0
_cell_length_a       6.29721
_cell_length_b       6.29721
_cell_length_c       34.0676
_cell_angle_alpha    90
_cell_angle_beta     90
_cell_angle_gamma    90

_symmetry_space_group_name_H-M    "P 1"
_symmetry_int_tables_number       1

loop_
  _symmetry_equiv_pos_as_xyz
  'x, y, z'

loop_
  _atom_site_label
  _atom_site_occupancy
  _atom_site_fract_x
  _atom_site_fract_y
  _atom_site_fract_z
  _atom_site_thermal_displace_type
  _atom_site_B_iso_or_equiv
  _atom_site_type_symbol
  Ir1      1.0000 0.50000  0.50000  0.46011  Biso   1.000  Ir
  Ir2      1.0000 0.00000  0.50000  0.21011  Biso   1.000  Ir
  Ir3      1.0000 0.50000  0.00000  0.28989  Biso   1.000  Ir
  Ir4      1.0000 0.50000  0.50000  0.03989  Biso   1.000  Ir
  Ir5      1.0000 0.00000  0.50000  0.28989  Biso   1.000  Ir
  Ir6      1.0000 0.00000  0.00000  0.03989  Biso   1.000  Ir
  Ir7      1.0000 0.00000  0.00000  0.46011  Biso   1.000  Ir
  Ir8      1.0000 0.50000  0.00000  0.21011  Biso   1.000  Ir
  Ir9      1.0000 0.00000  0.00000  0.96011  Biso   1.000  Ir
  Ir10     1.0000 0.50000  0.00000  0.71011  Biso   1.000  Ir
  Ir11     1.0000 0.00000  0.50000  0.78989  Biso   1.000  Ir
  Ir12     1.0000 0.00000  0.00000  0.53989  Biso   1.000  Ir
  Ir13     1.0000 0.50000  0.00000  0.78989  Biso   1.000  Ir
  Ir14     1.0000 0.50000  0.50000  0.53989  Biso   1.000  Ir
  Ir15     1.0000 0.50000  0.50000  0.96011  Biso   1.000  Ir
  Ir16     1.0000 0.00000  0.50000  0.71011  Biso   1.000  Ir
  O1       1.0000 0.31723  0.81630  0.08258  Biso   1.000  O
  O2       1.0000 0.68277  0.18370  0.08258  Biso   1.000  O
  O3       1.0000 0.18370  0.81723  0.33258  Biso   1.000  O
  O4       1.0000 0.81630  0.18277  0.33258  Biso   1.000  O
  O5       1.0000 0.18277  0.81630  0.16742  Biso   1.000  O
  O6       1.0000 0.81723  0.18370  0.16742  Biso   1.000  O
  O7       1.0000 0.81630  0.31723  0.41742  Biso   1.000  O
  O8       1.0000 0.18370  0.68277  0.41742  Biso   1.000  O
  O9       1.0000 0.68277  0.68370  0.16742  Biso   1.000  O
  O10      1.0000 0.31723  0.31630  0.16742  Biso   1.000  O
  O11      1.0000 0.31630  0.18277  0.41742  Biso   1.000  O
  O12      1.0000 0.68370  0.81723  0.41742  Biso   1.000  O
  O13      1.0000 0.81723  0.68370  0.08258  Biso   1.000  O
  O14      1.0000 0.18277  0.31630  0.08258  Biso   1.000  O
  O15      1.0000 0.68370  0.68277  0.33258  Biso   1.000  O
  O16      1.0000 0.31630  0.31723  0.33258  Biso   1.000  O
  O17      1.0000 0.83662  0.83662  0.25000  Biso   1.000  O
  O18      1.0000 0.16338  0.16338  0.25000  Biso   1.000  O
  O19      1.0000 0.16338  0.33662  0.50000  Biso   1.000  O
  O20      1.0000 0.83662  0.66338  0.50000  Biso   1.000  O
  O21      1.0000 0.66338  0.16338  0.50000  Biso   1.000  O
  O22      1.0000 0.33662  0.83662  0.50000  Biso   1.000  O
  O23      1.0000 0.33662  0.66338  0.25000  Biso   1.000  O
  O24      1.0000 0.66338  0.33662  0.25000  Biso   1.000  O
  O25      1.0000 0.81723  0.31630  0.58258  Biso   1.000  O
  O26      1.0000 0.18277  0.68370  0.58258  Biso   1.000  O
  O27      1.0000 0.68370  0.31723  0.83258  Biso   1.000  O
  O28      1.0000 0.31630  0.68277  0.83258  Biso   1.000  O
  O29      1.0000 0.68277  0.31630  0.66742  Biso   1.000  O
  O30      1.0000 0.31723  0.68370  0.66742  Biso   1.000  O
  O31      1.0000 0.31630  0.81723  0.91742  Biso   1.000  O
  O32      1.0000 0.68370  0.18277  0.91742  Biso   1.000  O
  O33      1.0000 0.18277  0.18370  0.66742  Biso   1.000  O
  O34      1.0000 0.81723  0.81630  0.66742  Biso   1.000  O
  O35      1.0000 0.81630  0.68277  0.91742  Biso   1.000  O
  O36      1.0000 0.18370  0.31723  0.91742  Biso   1.000  O
  O37      1.0000 0.31723  0.18370  0.58258  Biso   1.000  O
  O38      1.0000 0.68277  0.81630  0.58258  Biso   1.000  O
  O39      1.0000 0.18370  0.18277  0.83258  Biso   1.000  O
  O40      1.0000 0.81630  0.81723  0.83258  Biso   1.000  O
  O41      1.0000 0.33662  0.33662  0.75000  Biso   1.000  O
  O42      1.0000 0.66338  0.66338  0.75000  Biso   1.000  O
  O43      1.0000 0.66338  0.83662  0.00000  Biso   1.000  O
  O44      1.0000 0.33662  0.16338  0.00000  Biso   1.000  O
  O45      1.0000 0.16338  0.66338  0.00000  Biso   1.000  O
  O46      1.0000 0.83662  0.33662  0.00000  Biso   1.000  O
  O47      1.0000 0.83662  0.16338  0.75000  Biso   1.000  O
  O48      1.0000 0.16338  0.83662  0.75000  Biso   1.000  O
