data_image0
_cell_length_a       5.63808
_cell_length_b       5.59167
_cell_length_c       8.34352
_cell_angle_alpha    90
_cell_angle_beta     105.949
_cell_angle_gamma    90

_symmetry_space_group_name_H-M    "P 1"
_symmetry_int_tables_number       1

loop_
  _symmetry_equiv_pos_as_xyz
  'x, y, z'

loop_
  _atom_site_label
  _atom_site_occupancy
  _atom_site_fract_x
  _atom_site_fract_y
  _atom_site_fract_z
  _atom_site_thermal_displace_type
  _atom_site_B_iso_or_equiv
  _atom_site_type_symbol
  Ir1      1.0000 0.78582  0.75000  0.87232  Biso   1.000  Ir
  Ir2      1.0000 0.21418  0.25000  0.12768  Biso   1.000  Ir
  Ir3      1.0000 0.62084  0.75000  0.37759  Biso   1.000  Ir
  Ir4      1.0000 0.37916  0.25000  0.62241  Biso   1.000  Ir
  O1       1.0000 0.29071  0.00166  0.87703  Biso   1.000  O
  O2       1.0000 0.70929  0.50166  0.12297  Biso   1.000  O
  O3       1.0000 0.70929  0.99834  0.12297  Biso   1.000  O
  O4       1.0000 0.29071  0.49834  0.87703  Biso   1.000  O
  O5       1.0000 0.20884  0.75000  0.12797  Biso   1.000  O
  O6       1.0000 0.79116  0.25000  0.87203  Biso   1.000  O
  O7       1.0000 0.88028  0.00090  0.62591  Biso   1.000  O
  O8       1.0000 0.11972  0.50090  0.37409  Biso   1.000  O
  O9       1.0000 0.11972  0.99910  0.37409  Biso   1.000  O
  O10      1.0000 0.88028  0.49910  0.62591  Biso   1.000  O
  O11      1.0000 0.38977  0.75000  0.62416  Biso   1.000  O
  O12      1.0000 0.61024  0.25000  0.37584  Biso   1.000  O
