data_image0
_cell_length_a       6.0328
_cell_length_b       10.4491
_cell_length_c       17.9921
_cell_angle_alpha    90
_cell_angle_beta     90
_cell_angle_gamma    90

_symmetry_space_group_name_H-M    "P 1"
_symmetry_int_tables_number       1

loop_
  _symmetry_equiv_pos_as_xyz
  'x, y, z'

loop_
  _atom_site_label
  _atom_site_occupancy
  _atom_site_fract_x
  _atom_site_fract_y
  _atom_site_fract_z
  _atom_site_thermal_displace_type
  _atom_site_B_iso_or_equiv
  _atom_site_type_symbol
  O1       1.0000 0.51293  0.72219  0.75578  Biso   1.000  O
  O2       1.0000 0.48707  0.72219  0.24422  Biso   1.000  O
  O3       1.0000 0.49358  0.39527  0.75577  Biso   1.000  O
  O4       1.0000 0.50642  0.39527  0.24424  Biso   1.000  O
  O5       1.0000 0.49349  0.04896  0.75546  Biso   1.000  O
  O6       1.0000 0.50651  0.04896  0.24454  Biso   1.000  O
  O7       1.0000 0.67329  0.22877  0.57790  Biso   1.000  O
  O8       1.0000 0.32671  0.22877  0.42210  Biso   1.000  O
  O9       1.0000 0.15391  0.05558  0.57760  Biso   1.000  O
  O10      1.0000 0.84609  0.05558  0.42240  Biso   1.000  O
  O11      1.0000 0.67317  0.88246  0.57759  Biso   1.000  O
  O12      1.0000 0.32683  0.88246  0.42241  Biso   1.000  O
  O13      1.0000 0.66026  0.89537  0.08911  Biso   1.000  O
  O14      1.0000 0.33974  0.89537  0.91089  Biso   1.000  O
  O15      1.0000 0.16031  0.04916  0.08910  Biso   1.000  O
  O16      1.0000 0.83969  0.04916  0.91090  Biso   1.000  O
  O17      1.0000 0.67982  0.22227  0.08880  Biso   1.000  O
  O18      1.0000 0.32018  0.22227  0.91120  Biso   1.000  O
  O19      1.0000 0.01293  0.22219  0.75578  Biso   1.000  O
  O20      1.0000 0.98707  0.22219  0.24422  Biso   1.000  O
  O21      1.0000 0.99358  0.89527  0.75577  Biso   1.000  O
  O22      1.0000 0.00642  0.89527  0.24424  Biso   1.000  O
  O23      1.0000 0.99349  0.54897  0.75546  Biso   1.000  O
  O24      1.0000 0.00651  0.54897  0.24454  Biso   1.000  O
  O25      1.0000 0.17330  0.72877  0.57790  Biso   1.000  O
  O26      1.0000 0.82671  0.72877  0.42210  Biso   1.000  O
  O27      1.0000 0.65391  0.55558  0.57760  Biso   1.000  O
  O28      1.0000 0.34609  0.55558  0.42240  Biso   1.000  O
  O29      1.0000 0.17317  0.38246  0.57759  Biso   1.000  O
  O30      1.0000 0.82683  0.38246  0.42241  Biso   1.000  O
  O31      1.0000 0.16026  0.39537  0.08911  Biso   1.000  O
  O32      1.0000 0.83974  0.39537  0.91089  Biso   1.000  O
  O33      1.0000 0.66031  0.54916  0.08910  Biso   1.000  O
  O34      1.0000 0.33969  0.54916  0.91090  Biso   1.000  O
  O35      1.0000 0.17982  0.72227  0.08880  Biso   1.000  O
  O36      1.0000 0.82018  0.72227  0.91120  Biso   1.000  O
  Ir1      1.0000 0.66674  0.88892  0.83335  Biso   1.000  Ir
  Ir2      1.0000 0.33326  0.88892  0.16665  Biso   1.000  Ir
  Ir3      1.0000 0.16689  0.05564  0.83335  Biso   1.000  Ir
  Ir4      1.0000 0.83311  0.05564  0.16665  Biso   1.000  Ir
  Ir5      1.0000 0.50000  0.72218  0.50000  Biso   1.000  Ir
  Ir6      1.0000 0.50000  0.38874  0.50000  Biso   1.000  Ir
  Ir7      1.0000 0.16674  0.38892  0.83335  Biso   1.000  Ir
  Ir8      1.0000 0.83326  0.38892  0.16665  Biso   1.000  Ir
  Ir9      1.0000 0.66689  0.55563  0.83335  Biso   1.000  Ir
  Ir10     1.0000 0.33311  0.55563  0.16665  Biso   1.000  Ir
  Ir11     1.0000 0.00000  0.22218  0.50000  Biso   1.000  Ir
  Ir12     1.0000 0.00000  0.88874  0.50000  Biso   1.000  Ir
