data_image0
_cell_length_a       6.97048
_cell_length_b       7.97946
_cell_length_c       7.40849
_cell_angle_alpha    90
_cell_angle_beta     112.937
_cell_angle_gamma    90

_symmetry_space_group_name_H-M    "P 1"
_symmetry_int_tables_number       1

loop_
  _symmetry_equiv_pos_as_xyz
  'x, y, z'

loop_
  _atom_site_label
  _atom_site_occupancy
  _atom_site_fract_x
  _atom_site_fract_y
  _atom_site_fract_z
  _atom_site_thermal_displace_type
  _atom_site_B_iso_or_equiv
  _atom_site_type_symbol
  O1       1.0000 0.18958  0.99611  0.54078  Biso   1.000  O
  O2       1.0000 0.81042  0.49611  0.45922  Biso   1.000  O
  O3       1.0000 0.85128  0.99608  0.81046  Biso   1.000  O
  O4       1.0000 0.14872  0.49608  0.18954  Biso   1.000  O
  O5       1.0000 0.45910  0.99606  0.14867  Biso   1.000  O
  O6       1.0000 0.54090  0.49606  0.85133  Biso   1.000  O
  Ir1      1.0000 0.16673  0.86575  0.83348  Biso   1.000  Ir
  Ir2      1.0000 0.83327  0.36575  0.16652  Biso   1.000  Ir
