data_image0
_cell_length_a       11.9233
_cell_length_b       3.36024
_cell_length_c       12.664
_cell_angle_alpha    90
_cell_angle_beta     113.546
_cell_angle_gamma    90

_symmetry_space_group_name_H-M    "P 1"
_symmetry_int_tables_number       1

loop_
  _symmetry_equiv_pos_as_xyz
  'x, y, z'

loop_
  _atom_site_label
  _atom_site_occupancy
  _atom_site_fract_x
  _atom_site_fract_y
  _atom_site_fract_z
  _atom_site_thermal_displace_type
  _atom_site_B_iso_or_equiv
  _atom_site_type_symbol
  O1       1.0000 0.94045  0.25000  0.56497  Biso   1.000  O
  O2       1.0000 0.05955  0.75000  0.43503  Biso   1.000  O
  O3       1.0000 0.32081  0.25000  0.41456  Biso   1.000  O
  O4       1.0000 0.67919  0.75000  0.58544  Biso   1.000  O
  O5       1.0000 0.32043  0.25000  0.59650  Biso   1.000  O
  O6       1.0000 0.67957  0.75000  0.40350  Biso   1.000  O
  O7       1.0000 0.29484  0.25000  0.73343  Biso   1.000  O
  O8       1.0000 0.70516  0.75000  0.26657  Biso   1.000  O
  O9       1.0000 0.98037  0.25000  0.25282  Biso   1.000  O
  O10      1.0000 0.01963  0.75000  0.74718  Biso   1.000  O
  O11      1.0000 0.30947  0.25000  0.22307  Biso   1.000  O
  O12      1.0000 0.69053  0.75000  0.77693  Biso   1.000  O
  O13      1.0000 0.94658  0.25000  0.90610  Biso   1.000  O
  O14      1.0000 0.05342  0.75000  0.09390  Biso   1.000  O
  O15      1.0000 0.74922  0.25000  0.06988  Biso   1.000  O
  O16      1.0000 0.25078  0.75000  0.93012  Biso   1.000  O
  O17      1.0000 0.60085  0.25000  0.93162  Biso   1.000  O
  O18      1.0000 0.39915  0.75000  0.06838  Biso   1.000  O
  Ir1      1.0000 0.85913  0.25000  0.38203  Biso   1.000  Ir
  Ir2      1.0000 0.14087  0.75000  0.61797  Biso   1.000  Ir
  Ir3      1.0000 0.81515  0.25000  0.70359  Biso   1.000  Ir
  Ir4      1.0000 0.18485  0.75000  0.29641  Biso   1.000  Ir
  Ir5      1.0000 0.19749  0.25000  0.04051  Biso   1.000  Ir
  Ir6      1.0000 0.80251  0.75000  0.95949  Biso   1.000  Ir
