data_image0
_cell_length_a       16.5698
_cell_length_b       3.60545
_cell_length_c       8.18444
_cell_angle_alpha    90
_cell_angle_beta     92.9837
_cell_angle_gamma    90

_symmetry_space_group_name_H-M    "P 1"
_symmetry_int_tables_number       1

loop_
  _symmetry_equiv_pos_as_xyz
  'x, y, z'

loop_
  _atom_site_label
  _atom_site_occupancy
  _atom_site_fract_x
  _atom_site_fract_y
  _atom_site_fract_z
  _atom_site_thermal_displace_type
  _atom_site_B_iso_or_equiv
  _atom_site_type_symbol
  O1       1.0000 0.49677  0.50000  0.14333  Biso   1.000  O
  O2       1.0000 0.49653  0.00000  0.40196  Biso   1.000  O
  O3       1.0000 0.37509  0.00000  0.60377  Biso   1.000  O
  O4       1.0000 0.37485  0.50000  0.85347  Biso   1.000  O
  O5       1.0000 0.37361  0.50000  0.34405  Biso   1.000  O
  O6       1.0000 0.25135  0.00000  0.30452  Biso   1.000  O
  O7       1.0000 0.25017  0.00000  0.79444  Biso   1.000  O
  O8       1.0000 0.25009  0.50000  0.04543  Biso   1.000  O
  O9       1.0000 0.12815  0.50000  0.24471  Biso   1.000  O
  O10      1.0000 0.12793  0.00000  0.50370  Biso   1.000  O
  O11      1.0000 0.12266  0.50000  0.74035  Biso   1.000  O
  O12      1.0000 0.00262  0.50000  0.90696  Biso   1.000  O
  O13      1.0000 0.99677  0.00000  0.14333  Biso   1.000  O
  O14      1.0000 0.99653  0.50000  0.40196  Biso   1.000  O
  O15      1.0000 0.87509  0.50000  0.60377  Biso   1.000  O
  O16      1.0000 0.87485  0.00000  0.85347  Biso   1.000  O
  O17      1.0000 0.87361  0.00000  0.34405  Biso   1.000  O
  O18      1.0000 0.75135  0.50000  0.30452  Biso   1.000  O
  O19      1.0000 0.75017  0.50000  0.79444  Biso   1.000  O
  O20      1.0000 0.75009  0.00000  0.04543  Biso   1.000  O
  O21      1.0000 0.62815  0.00000  0.24471  Biso   1.000  O
  O22      1.0000 0.62793  0.50000  0.50370  Biso   1.000  O
  O23      1.0000 0.62266  0.00000  0.74035  Biso   1.000  O
  O24      1.0000 0.50262  0.00000  0.90696  Biso   1.000  O
  Ir1      1.0000 0.48936  0.50000  0.64443  Biso   1.000  Ir
  Ir2      1.0000 0.36744  0.00000  0.09564  Biso   1.000  Ir
  Ir3      1.0000 0.25762  0.50000  0.55239  Biso   1.000  Ir
  Ir4      1.0000 0.13578  0.00000  0.00306  Biso   1.000  Ir
  Ir5      1.0000 0.98937  0.00000  0.64443  Biso   1.000  Ir
  Ir6      1.0000 0.86744  0.50000  0.09564  Biso   1.000  Ir
  Ir7      1.0000 0.75762  0.00000  0.55239  Biso   1.000  Ir
  Ir8      1.0000 0.63578  0.50000  0.00306  Biso   1.000  Ir
