data_image0
_cell_length_a       4.87433
_cell_length_b       5.18288
_cell_length_c       7.14614
_cell_angle_alpha    89.998
_cell_angle_beta     89.9754
_cell_angle_gamma    67.0713

_symmetry_space_group_name_H-M    "P 1"
_symmetry_int_tables_number       1

loop_
  _symmetry_equiv_pos_as_xyz
  'x, y, z'

loop_
  _atom_site_label
  _atom_site_occupancy
  _atom_site_fract_x
  _atom_site_fract_y
  _atom_site_fract_z
  _atom_site_thermal_displace_type
  _atom_site_B_iso_or_equiv
  _atom_site_type_symbol
  Ir1      1.0000 0.33339  0.33332  0.33923  Biso   1.000  Ir
  Ir2      1.0000 0.66661  0.66669  0.66072  Biso   1.000  Ir
  Ir3      1.0000 0.99999  0.00024  0.99735  Biso   1.000  Ir
  O1       1.0000 0.32112  0.67434  0.17852  Biso   1.000  O
  O2       1.0000 0.67456  0.00450  0.17857  Biso   1.000  O
  O3       1.0000 0.00464  0.32110  0.17862  Biso   1.000  O
  O4       1.0000 0.98960  0.66047  0.50480  Biso   1.000  O
  O5       1.0000 0.66035  0.34996  0.50480  Biso   1.000  O
  O6       1.0000 0.34989  0.98969  0.50484  Biso   1.000  O
  O7       1.0000 0.98145  0.34049  0.81748  Biso   1.000  O
  O8       1.0000 0.34035  0.67789  0.81751  Biso   1.000  O
  O9       1.0000 0.67805  0.98130  0.81757  Biso   1.000  O
