data_image0
_cell_length_a       7.7343
_cell_length_b       12.188
_cell_length_c       12.175
_cell_angle_alpha    90
_cell_angle_beta     106.542
_cell_angle_gamma    90

_symmetry_space_group_name_H-M    "P 1"
_symmetry_int_tables_number       1

loop_
  _symmetry_equiv_pos_as_xyz
  'x, y, z'

loop_
  _atom_site_label
  _atom_site_occupancy
  _atom_site_fract_x
  _atom_site_fract_y
  _atom_site_fract_z
  _atom_site_thermal_displace_type
  _atom_site_B_iso_or_equiv
  _atom_site_type_symbol
  O1       1.0000 0.39627  0.75501  0.37883  Biso   1.000  O
  O2       1.0000 0.60373  0.75501  0.12117  Biso   1.000  O
  O3       1.0000 0.60373  0.24499  0.62117  Biso   1.000  O
  O4       1.0000 0.39627  0.24499  0.87883  Biso   1.000  O
  O5       1.0000 0.35328  0.10160  0.37645  Biso   1.000  O
  O6       1.0000 0.64672  0.10160  0.12355  Biso   1.000  O
  O7       1.0000 0.64672  0.89840  0.62355  Biso   1.000  O
  O8       1.0000 0.35328  0.89840  0.87645  Biso   1.000  O
  O9       1.0000 0.86782  0.93701  0.36094  Biso   1.000  O
  O10      1.0000 0.13218  0.93701  0.13906  Biso   1.000  O
  O11      1.0000 0.13218  0.06299  0.63906  Biso   1.000  O
  O12      1.0000 0.86782  0.06299  0.86094  Biso   1.000  O
  O13      1.0000 0.89627  0.25501  0.37883  Biso   1.000  O
  O14      1.0000 0.10373  0.25501  0.12117  Biso   1.000  O
  O15      1.0000 0.10373  0.74499  0.62117  Biso   1.000  O
  O16      1.0000 0.89627  0.74499  0.87883  Biso   1.000  O
  O17      1.0000 0.85328  0.60160  0.37645  Biso   1.000  O
  O18      1.0000 0.14672  0.60160  0.12355  Biso   1.000  O
  O19      1.0000 0.14672  0.39840  0.62355  Biso   1.000  O
  O20      1.0000 0.85328  0.39840  0.87645  Biso   1.000  O
  O21      1.0000 0.36782  0.43701  0.36094  Biso   1.000  O
  O22      1.0000 0.63218  0.43701  0.13906  Biso   1.000  O
  O23      1.0000 0.63218  0.56299  0.63906  Biso   1.000  O
  O24      1.0000 0.36782  0.56299  0.86094  Biso   1.000  O
  Ir1      1.0000 0.50000  0.59656  0.25000  Biso   1.000  Ir
  Ir2      1.0000 0.50000  0.40344  0.75000  Biso   1.000  Ir
  Ir3      1.0000 0.25000  0.75000  0.00000  Biso   1.000  Ir
  Ir4      1.0000 0.25000  0.25000  0.50000  Biso   1.000  Ir
  Ir5      1.0000 0.00000  0.09656  0.25000  Biso   1.000  Ir
  Ir6      1.0000 0.00000  0.90344  0.75000  Biso   1.000  Ir
  Ir7      1.0000 0.75000  0.25000  0.00000  Biso   1.000  Ir
  Ir8      1.0000 0.75000  0.75000  0.50000  Biso   1.000  Ir
