data_image0
_cell_length_a       22.8937
_cell_length_b       4.1829
_cell_length_c       8.06783
_cell_angle_alpha    90
_cell_angle_beta     92.8053
_cell_angle_gamma    90

_symmetry_space_group_name_H-M    "P 1"
_symmetry_int_tables_number       1

loop_
  _symmetry_equiv_pos_as_xyz
  'x, y, z'

loop_
  _atom_site_label
  _atom_site_occupancy
  _atom_site_fract_x
  _atom_site_fract_y
  _atom_site_fract_z
  _atom_site_thermal_displace_type
  _atom_site_B_iso_or_equiv
  _atom_site_type_symbol
  Ir1      1.0000 0.18750  0.50000  0.78170  Biso   1.000  Ir
  Ir2      1.0000 0.31250  0.00000  0.21830  Biso   1.000  Ir
  Ir3      1.0000 0.68750  0.00000  0.78170  Biso   1.000  Ir
  Ir4      1.0000 0.81250  0.50000  0.21830  Biso   1.000  Ir
  O1       1.0000 0.17874  0.00000  0.57667  Biso   1.000  O
  O2       1.0000 0.32126  0.50000  0.42333  Biso   1.000  O
  O3       1.0000 0.32520  0.50000  0.01496  Biso   1.000  O
  O4       1.0000 0.17480  0.00000  0.98504  Biso   1.000  O
  O5       1.0000 0.48165  0.00000  0.38942  Biso   1.000  O
  O6       1.0000 0.01835  0.50000  0.61058  Biso   1.000  O
  O7       1.0000 0.67874  0.50000  0.57667  Biso   1.000  O
  O8       1.0000 0.82126  0.00000  0.42333  Biso   1.000  O
  O9       1.0000 0.82520  0.00000  0.01496  Biso   1.000  O
  O10      1.0000 0.67480  0.50000  0.98504  Biso   1.000  O
  O11      1.0000 0.98165  0.50000  0.38942  Biso   1.000  O
  O12      1.0000 0.51835  0.00000  0.61058  Biso   1.000  O
