data_image0
_cell_length_a       12.9541
_cell_length_b       15.506
_cell_length_c       6.38199
_cell_angle_alpha    90
_cell_angle_beta     90
_cell_angle_gamma    90

_symmetry_space_group_name_H-M    "P 1"
_symmetry_int_tables_number       1

loop_
  _symmetry_equiv_pos_as_xyz
  'x, y, z'

loop_
  _atom_site_label
  _atom_site_occupancy
  _atom_site_fract_x
  _atom_site_fract_y
  _atom_site_fract_z
  _atom_site_thermal_displace_type
  _atom_site_B_iso_or_equiv
  _atom_site_type_symbol
  O1       1.0000 0.86459  0.52141  0.86172  Biso   1.000  O
  O2       1.0000 0.13541  0.47859  0.36172  Biso   1.000  O
  O3       1.0000 0.36459  0.97859  0.86172  Biso   1.000  O
  O4       1.0000 0.63541  0.02141  0.36172  Biso   1.000  O
  O5       1.0000 0.35640  0.53382  0.57790  Biso   1.000  O
  O6       1.0000 0.64360  0.46618  0.07790  Biso   1.000  O
  O7       1.0000 0.85640  0.96618  0.57790  Biso   1.000  O
  O8       1.0000 0.14360  0.03382  0.07790  Biso   1.000  O
  O9       1.0000 0.14092  0.58157  0.82408  Biso   1.000  O
  O10      1.0000 0.85908  0.41843  0.32408  Biso   1.000  O
  O11      1.0000 0.64092  0.91843  0.82408  Biso   1.000  O
  O12      1.0000 0.35908  0.08157  0.32408  Biso   1.000  O
  O13      1.0000 0.65191  0.59962  0.48235  Biso   1.000  O
  O14      1.0000 0.34809  0.40038  0.98235  Biso   1.000  O
  O15      1.0000 0.15191  0.90038  0.48235  Biso   1.000  O
  O16      1.0000 0.84809  0.09962  0.98235  Biso   1.000  O
  O17      1.0000 0.47014  0.61060  0.11342  Biso   1.000  O
  O18      1.0000 0.52986  0.38940  0.61342  Biso   1.000  O
  O19      1.0000 0.97014  0.88940  0.11342  Biso   1.000  O
  O20      1.0000 0.02986  0.11060  0.61342  Biso   1.000  O
  O21      1.0000 0.92582  0.65444  0.24499  Biso   1.000  O
  O22      1.0000 0.07418  0.34556  0.74499  Biso   1.000  O
  O23      1.0000 0.42582  0.84556  0.24499  Biso   1.000  O
  O24      1.0000 0.57418  0.15444  0.74499  Biso   1.000  O
  O25      1.0000 0.69868  0.67008  0.99788  Biso   1.000  O
  O26      1.0000 0.30132  0.32992  0.49788  Biso   1.000  O
  O27      1.0000 0.19868  0.82992  0.99788  Biso   1.000  O
  O28      1.0000 0.80132  0.17008  0.49788  Biso   1.000  O
  O29      1.0000 0.20781  0.67531  0.37451  Biso   1.000  O
  O30      1.0000 0.79219  0.32469  0.87451  Biso   1.000  O
  O31      1.0000 0.70781  0.82469  0.37451  Biso   1.000  O
  O32      1.0000 0.29219  0.17531  0.87451  Biso   1.000  O
  O33      1.0000 0.90305  0.72355  0.75125  Biso   1.000  O
  O34      1.0000 0.09695  0.27645  0.25125  Biso   1.000  O
  O35      1.0000 0.40305  0.77645  0.75125  Biso   1.000  O
  O36      1.0000 0.59695  0.22355  0.25125  Biso   1.000  O
  Ir1      1.0000 0.20007  0.58074  0.55465  Biso   1.000  Ir
  Ir2      1.0000 0.79993  0.41926  0.05465  Biso   1.000  Ir
  Ir3      1.0000 0.70007  0.91926  0.55465  Biso   1.000  Ir
  Ir4      1.0000 0.29993  0.08074  0.05465  Biso   1.000  Ir
  Ir5      1.0000 0.60594  0.59204  0.20394  Biso   1.000  Ir
  Ir6      1.0000 0.39406  0.40796  0.70394  Biso   1.000  Ir
  Ir7      1.0000 0.10594  0.90796  0.20394  Biso   1.000  Ir
  Ir8      1.0000 0.89406  0.09204  0.70394  Biso   1.000  Ir
  Ir9      1.0000 0.86534  0.65358  0.97762  Biso   1.000  Ir
  Ir10     1.0000 0.13466  0.34642  0.47762  Biso   1.000  Ir
  Ir11     1.0000 0.36534  0.84642  0.97762  Biso   1.000  Ir
  Ir12     1.0000 0.63466  0.15358  0.47762  Biso   1.000  Ir
