data_image0
_cell_length_a       3.1894
_cell_length_b       4.54
_cell_length_c       40.4243
_cell_angle_alpha    90
_cell_angle_beta     90
_cell_angle_gamma    90

_symmetry_space_group_name_H-M    "P 1"
_symmetry_int_tables_number       1

loop_
  _symmetry_equiv_pos_as_xyz
  'x, y, z'

loop_
  _atom_site_label
  _atom_site_occupancy
  _atom_site_fract_x
  _atom_site_fract_y
  _atom_site_fract_z
  _atom_site_thermal_displace_type
  _atom_site_B_iso_or_equiv
  _atom_site_type_symbol
  O1       1.0000 0.50000  0.10000  0.19676  Biso   1.000  O
  Ir1      1.0000 0.00000  0.30000  0.21924  Biso   1.000  Ir
  O2       1.0000 0.50000  0.50000  0.24170  Biso   1.000  O
  O3       1.0000 0.00000  0.00000  0.25293  Biso   1.000  O
  Ir2      1.0000 0.50000  0.80000  0.27539  Biso   1.000  Ir
  O4       1.0000 0.00000  0.60000  0.29785  Biso   1.000  O
  O5       1.0000 0.50000  0.10000  0.30908  Biso   1.000  O
  Ir3      1.0000 0.00000  0.30000  0.33154  Biso   1.000  Ir
  O6       1.0000 0.50000  0.50000  0.35400  Biso   1.000  O
  O7       1.0000 0.00000  0.00000  0.36523  Biso   1.000  O
  Ir4      1.0000 0.50000  0.80000  0.38769  Biso   1.000  Ir
  O8       1.0000 0.00000  0.60000  0.41016  Biso   1.000  O
  O9       1.0000 0.50000  0.10000  0.42139  Biso   1.000  O
  Ir5      1.0000 0.00000  0.30000  0.44385  Biso   1.000  Ir
  O10      1.0000 0.50000  0.50000  0.46631  Biso   1.000  O
  O11      1.0000 0.00000  0.00000  0.47754  Biso   1.000  O
  Ir6      1.0000 0.50000  0.80000  0.50000  Biso   1.000  Ir
  O12      1.0000 0.00000  0.60000  0.52246  Biso   1.000  O
  O13      1.0000 0.50000  0.10000  0.53369  Biso   1.000  O
  Ir7      1.0000 0.00000  0.30000  0.55615  Biso   1.000  Ir
  O14      1.0000 0.50000  0.50000  0.57861  Biso   1.000  O
  O15      1.0000 0.00000  0.00000  0.58985  Biso   1.000  O
  Ir8      1.0000 0.50000  0.80000  0.61231  Biso   1.000  Ir
  O16      1.0000 0.00000  0.60000  0.63477  Biso   1.000  O
  O17      1.0000 0.50000  0.10000  0.64600  Biso   1.000  O
  Ir9      1.0000 0.00000  0.30000  0.66846  Biso   1.000  Ir
  O18      1.0000 0.50000  0.50000  0.69092  Biso   1.000  O
  O19      1.0000 0.00000  0.00000  0.70215  Biso   1.000  O
  Ir10     1.0000 0.50000  0.80000  0.72461  Biso   1.000  Ir
  O20      1.0000 0.00000  0.60000  0.74707  Biso   1.000  O
  O21      1.0000 0.50000  0.10000  0.75830  Biso   1.000  O
  Ir11     1.0000 0.00000  0.30000  0.78078  Biso   1.000  Ir
  O22      1.0000 0.50000  0.50000  0.80324  Biso   1.000  O
