data_image0
_cell_length_a       6.4823
_cell_length_b       9.61966
_cell_length_c       32.9646
_cell_angle_alpha    90
_cell_angle_beta     90
_cell_angle_gamma    90

_symmetry_space_group_name_H-M    "P 1"
_symmetry_int_tables_number       1

loop_
  _symmetry_equiv_pos_as_xyz
  'x, y, z'

loop_
  _atom_site_label
  _atom_site_occupancy
  _atom_site_fract_x
  _atom_site_fract_y
  _atom_site_fract_z
  _atom_site_thermal_displace_type
  _atom_site_B_iso_or_equiv
  _atom_site_type_symbol
  O1       1.0000 0.00000  0.00000  0.30336  Biso   1.000  O
  Ir1      1.0000 0.50000  0.33333  0.34107  Biso   1.000  Ir
  Ir2      1.0000 0.00000  0.16667  0.34107  Biso   1.000  Ir
  O2       1.0000 0.50000  0.33333  0.40168  Biso   1.000  O
  O3       1.0000 0.00000  0.33333  0.37878  Biso   1.000  O
  O4       1.0000 0.69177  0.16667  0.34107  Biso   1.000  O
  O5       1.0000 0.30823  0.16667  0.34107  Biso   1.000  O
  Ir3      1.0000 0.00000  0.33333  0.43939  Biso   1.000  Ir
  Ir4      1.0000 0.50000  0.16667  0.43939  Biso   1.000  Ir
  O6       1.0000 0.00036  0.33308  0.50029  Biso   1.000  O
  O7       1.0000 0.49831  0.33334  0.47757  Biso   1.000  O
  O8       1.0000 0.19177  0.16667  0.43939  Biso   1.000  O
  O9       1.0000 0.80823  0.16667  0.43939  Biso   1.000  O
  Ir5      1.0000 0.50044  0.33312  0.53833  Biso   1.000  Ir
  Ir6      1.0000 0.00011  0.16626  0.53805  Biso   1.000  Ir
  O10      1.0000 0.50389  0.33295  0.59875  Biso   1.000  O
  O11      1.0000 0.00122  0.33287  0.57576  Biso   1.000  O
  O12      1.0000 0.69224  0.16653  0.53776  Biso   1.000  O
  O13      1.0000 0.30862  0.16628  0.53815  Biso   1.000  O
  Ir7      1.0000 0.00065  0.33267  0.63848  Biso   1.000  Ir
  Ir8      1.0000 0.50283  0.16512  0.63658  Biso   1.000  Ir
  O14      1.0000 0.01186  0.33647  0.69761  Biso   1.000  O
  O15      1.0000 0.51139  0.33217  0.67359  Biso   1.000  O
  O16      1.0000 0.19440  0.16654  0.63592  Biso   1.000  O
  O17      1.0000 0.81124  0.16590  0.63679  Biso   1.000  O
  O18      1.0000 0.00000  0.33333  0.30336  Biso   1.000  O
  Ir9      1.0000 0.50000  0.66667  0.34107  Biso   1.000  Ir
  Ir10     1.0000 0.00000  0.50000  0.34107  Biso   1.000  Ir
  O19      1.0000 0.50000  0.66667  0.40168  Biso   1.000  O
  O20      1.0000 0.00000  0.66667  0.37878  Biso   1.000  O
  O21      1.0000 0.69177  0.50000  0.34107  Biso   1.000  O
  O22      1.0000 0.30823  0.50000  0.34107  Biso   1.000  O
  Ir11     1.0000 0.00000  0.66667  0.43939  Biso   1.000  Ir
  Ir12     1.0000 0.50000  0.50000  0.43939  Biso   1.000  Ir
  O23      1.0000 0.00018  0.66639  0.50028  Biso   1.000  O
  O24      1.0000 0.49956  0.66653  0.47756  Biso   1.000  O
  O25      1.0000 0.19177  0.50000  0.43939  Biso   1.000  O
  O26      1.0000 0.80823  0.50000  0.43939  Biso   1.000  O
  Ir13     1.0000 0.50098  0.66630  0.53831  Biso   1.000  Ir
  Ir14     1.0000 0.00021  0.49974  0.53805  Biso   1.000  Ir
  O27      1.0000 0.50412  0.66616  0.59866  Biso   1.000  O
  O28      1.0000 0.00128  0.66667  0.57558  Biso   1.000  O
  O29      1.0000 0.69244  0.49960  0.53795  Biso   1.000  O
  O30      1.0000 0.30844  0.49982  0.53824  Biso   1.000  O
  Ir15     1.0000 0.00640  0.66544  0.63795  Biso   1.000  Ir
  Ir16     1.0000 0.50321  0.49971  0.63666  Biso   1.000  Ir
  O31      1.0000 0.99611  0.66053  0.69724  Biso   1.000  O
  O32      1.0000 0.49449  0.66729  0.67347  Biso   1.000  O
  O33      1.0000 0.19565  0.49979  0.63655  Biso   1.000  O
  O34      1.0000 0.81120  0.49877  0.63717  Biso   1.000  O
  O35      1.0000 0.00000  0.66667  0.30336  Biso   1.000  O
  Ir17     1.0000 0.50000  0.00000  0.34107  Biso   1.000  Ir
  Ir18     1.0000 0.00000  0.83333  0.34107  Biso   1.000  Ir
  O36      1.0000 0.50000  0.00000  0.40168  Biso   1.000  O
  O37      1.0000 0.00000  0.00000  0.37878  Biso   1.000  O
  O38      1.0000 0.69177  0.83333  0.34107  Biso   1.000  O
  O39      1.0000 0.30823  0.83333  0.34107  Biso   1.000  O
  Ir19     1.0000 0.00000  0.00000  0.43939  Biso   1.000  Ir
  Ir20     1.0000 0.50000  0.83333  0.43939  Biso   1.000  Ir
  O40      1.0000 0.00036  0.99987  0.50025  Biso   1.000  O
  O41      1.0000 0.49937  0.99993  0.47747  Biso   1.000  O
  O42      1.0000 0.19177  0.83333  0.43939  Biso   1.000  O
  O43      1.0000 0.80823  0.83333  0.43939  Biso   1.000  O
  Ir21     1.0000 0.50100  0.99976  0.53809  Biso   1.000  Ir
  Ir22     1.0000 0.00164  0.83314  0.53799  Biso   1.000  Ir
  O44      1.0000 0.50460  0.99963  0.59822  Biso   1.000  O
  O45      1.0000 0.00099  0.99965  0.57577  Biso   1.000  O
  O46      1.0000 0.69291  0.83301  0.53786  Biso   1.000  O
  O47      1.0000 0.30943  0.83304  0.53802  Biso   1.000  O
  Ir23     1.0000 0.00426  0.99925  0.63728  Biso   1.000  Ir
  Ir24     1.0000 0.50583  0.83389  0.63656  Biso   1.000  Ir
  O48      1.0000 0.00415  0.00784  0.69597  Biso   1.000  O
  O49      1.0000 0.50451  0.99932  0.67235  Biso   1.000  O
  O50      1.0000 0.19703  0.83355  0.63650  Biso   1.000  O
  O51      1.0000 0.81488  0.83188  0.63619  Biso   1.000  O
  H1       1.0000 0.05089  0.91989  0.70807  Biso   1.000  H
  O52      1.0000 0.83507  0.31936  0.72048  Biso   1.000  O
  H2       1.0000 0.70714  0.32401  0.70153  Biso   1.000  H
  O53      1.0000 0.16120  0.72256  0.71887  Biso   1.000  O
  H3       1.0000 0.29219  0.69525  0.70362  Biso   1.000  H
