data_image0
_cell_length_a       6.64164
_cell_length_b       8.72335
_cell_length_c       32.1036
_cell_angle_alpha    90
_cell_angle_beta     90
_cell_angle_gamma    90

_symmetry_space_group_name_H-M    "P 1"
_symmetry_int_tables_number       1

loop_
  _symmetry_equiv_pos_as_xyz
  'x, y, z'

loop_
  _atom_site_label
  _atom_site_occupancy
  _atom_site_fract_x
  _atom_site_fract_y
  _atom_site_fract_z
  _atom_site_thermal_displace_type
  _atom_site_B_iso_or_equiv
  _atom_site_type_symbol
  O1       1.0000 0.50000  0.32474  0.23362  Biso   1.000  O
  O2       1.0000 0.50000  0.67526  0.23362  Biso   1.000  O
  O3       1.0000 0.00000  0.32474  0.24918  Biso   1.000  O
  O4       1.0000 0.00000  0.67526  0.24918  Biso   1.000  O
  O5       1.0000 0.00000  0.00000  0.25581  Biso   1.000  O
  O6       1.0000 0.28761  0.17526  0.29311  Biso   1.000  O
  Ir1      1.0000 0.50000  0.32465  0.29311  Biso   1.000  Ir
  O7       1.0000 0.31965  0.50000  0.29311  Biso   1.000  O
  Ir2      1.0000 0.50000  0.67534  0.29311  Biso   1.000  Ir
  O8       1.0000 0.71239  0.17526  0.29311  Biso   1.000  O
  Ir3      1.0000 0.00000  0.17534  0.29311  Biso   1.000  Ir
  O9       1.0000 0.68035  0.50000  0.29311  Biso   1.000  O
  O10      1.0000 0.28761  0.82474  0.29311  Biso   1.000  O
  Ir4      1.0000 0.00000  0.82466  0.29311  Biso   1.000  Ir
  O11      1.0000 0.71239  0.82474  0.29311  Biso   1.000  O
  O12      1.0000 0.00000  0.00000  0.33043  Biso   1.000  O
  O13      1.0000 0.00000  0.32474  0.33705  Biso   1.000  O
  O14      1.0000 0.00000  0.67526  0.33705  Biso   1.000  O
  O15      1.0000 0.50000  0.32474  0.35263  Biso   1.000  O
  O16      1.0000 0.50000  0.67526  0.35263  Biso   1.000  O
  O17      1.0000 0.50000  0.00000  0.35925  Biso   1.000  O
  O18      1.0000 0.21239  0.17526  0.39657  Biso   1.000  O
  O19      1.0000 0.78761  0.17526  0.39657  Biso   1.000  O
  Ir5      1.0000 0.50000  0.17534  0.39657  Biso   1.000  Ir
  Ir6      1.0000 0.00000  0.32465  0.39657  Biso   1.000  Ir
  O20      1.0000 0.18035  0.50000  0.39657  Biso   1.000  O
  O21      1.0000 0.81965  0.50000  0.39657  Biso   1.000  O
  Ir7      1.0000 0.00000  0.67534  0.39657  Biso   1.000  Ir
  Ir8      1.0000 0.50000  0.82466  0.39657  Biso   1.000  Ir
  O22      1.0000 0.21239  0.82474  0.39657  Biso   1.000  O
  O23      1.0000 0.78761  0.82474  0.39657  Biso   1.000  O
  O24      1.0000 0.50000  0.00000  0.43387  Biso   1.000  O
  O25      1.0000 0.50000  0.32474  0.44050  Biso   1.000  O
  O26      1.0000 0.50000  0.67526  0.44050  Biso   1.000  O
  O27      1.0000 0.00000  0.32474  0.45606  Biso   1.000  O
  O28      1.0000 0.00000  0.67526  0.45606  Biso   1.000  O
  O29      1.0000 0.00000  0.00000  0.46270  Biso   1.000  O
  O30      1.0000 0.28761  0.17526  0.50000  Biso   1.000  O
  Ir9      1.0000 0.50000  0.32465  0.50000  Biso   1.000  Ir
  O31      1.0000 0.31965  0.50000  0.50000  Biso   1.000  O
  Ir10     1.0000 0.50000  0.67534  0.50000  Biso   1.000  Ir
  O32      1.0000 0.28761  0.82474  0.50000  Biso   1.000  O
  O33      1.0000 0.71239  0.17526  0.50000  Biso   1.000  O
  Ir11     1.0000 0.00000  0.17534  0.50000  Biso   1.000  Ir
  O34      1.0000 0.68035  0.50000  0.50000  Biso   1.000  O
  Ir12     1.0000 0.00000  0.82466  0.50000  Biso   1.000  Ir
  O35      1.0000 0.71239  0.82474  0.50000  Biso   1.000  O
  O36      1.0000 0.00000  0.00000  0.53732  Biso   1.000  O
  O37      1.0000 0.00000  0.32474  0.54394  Biso   1.000  O
  O38      1.0000 0.00000  0.67526  0.54394  Biso   1.000  O
  O39      1.0000 0.50000  0.32474  0.55950  Biso   1.000  O
  O40      1.0000 0.50000  0.67526  0.55950  Biso   1.000  O
  O41      1.0000 0.50000  0.00000  0.56613  Biso   1.000  O
  O42      1.0000 0.21239  0.17526  0.60343  Biso   1.000  O
  O43      1.0000 0.78761  0.17526  0.60343  Biso   1.000  O
  Ir13     1.0000 0.50000  0.17534  0.60343  Biso   1.000  Ir
  Ir14     1.0000 0.00000  0.32465  0.60343  Biso   1.000  Ir
  O44      1.0000 0.18035  0.50000  0.60343  Biso   1.000  O
  O45      1.0000 0.81965  0.50000  0.60343  Biso   1.000  O
  Ir15     1.0000 0.00000  0.67534  0.60343  Biso   1.000  Ir
  Ir16     1.0000 0.50000  0.82466  0.60343  Biso   1.000  Ir
  O46      1.0000 0.21239  0.82474  0.60343  Biso   1.000  O
  O47      1.0000 0.78761  0.82474  0.60343  Biso   1.000  O
  O48      1.0000 0.50000  0.00000  0.64075  Biso   1.000  O
  O49      1.0000 0.50000  0.32474  0.64739  Biso   1.000  O
  O50      1.0000 0.50000  0.67526  0.64739  Biso   1.000  O
  O51      1.0000 0.00000  0.32474  0.66295  Biso   1.000  O
  O52      1.0000 0.00000  0.67526  0.66295  Biso   1.000  O
  O53      1.0000 0.00000  0.00000  0.66957  Biso   1.000  O
  O54      1.0000 0.28761  0.17526  0.70689  Biso   1.000  O
  O55      1.0000 0.71239  0.17526  0.70689  Biso   1.000  O
  Ir17     1.0000 0.00000  0.17534  0.70689  Biso   1.000  Ir
  Ir18     1.0000 0.50000  0.32465  0.70689  Biso   1.000  Ir
  O56      1.0000 0.31965  0.50000  0.70689  Biso   1.000  O
  O57      1.0000 0.68035  0.50000  0.70689  Biso   1.000  O
  Ir19     1.0000 0.50000  0.67534  0.70689  Biso   1.000  Ir
  Ir20     1.0000 0.00000  0.82466  0.70689  Biso   1.000  Ir
  O58      1.0000 0.28761  0.82474  0.70689  Biso   1.000  O
  O59      1.0000 0.71239  0.82474  0.70689  Biso   1.000  O
  O60      1.0000 0.00000  0.00000  0.74419  Biso   1.000  O
  O61      1.0000 0.00000  0.32474  0.75082  Biso   1.000  O
  O62      1.0000 0.00000  0.67526  0.75082  Biso   1.000  O
  O63      1.0000 0.50000  0.32474  0.76638  Biso   1.000  O
  O64      1.0000 0.50000  0.67526  0.76638  Biso   1.000  O
