data_image0
_cell_length_a       4.88305
_cell_length_b       5.1456
_cell_length_c       82.5519
_cell_angle_alpha    90
_cell_angle_beta     90
_cell_angle_gamma    61.674

_symmetry_space_group_name_H-M    "P 1"
_symmetry_int_tables_number       1

loop_
  _symmetry_equiv_pos_as_xyz
  'x, y, z'

loop_
  _atom_site_label
  _atom_site_occupancy
  _atom_site_fract_x
  _atom_site_fract_y
  _atom_site_fract_z
  _atom_site_thermal_displace_type
  _atom_site_B_iso_or_equiv
  _atom_site_type_symbol
  O1       1.0000 0.62615  0.71063  0.09085  Biso   1.000  O
  O2       1.0000 0.72570  0.16579  0.09837  Biso   1.000  O
  O3       1.0000 0.17099  0.62096  0.10588  Biso   1.000  O
  Ir1      1.0000 0.73273  0.84315  0.11054  Biso   1.000  Ir
  O4       1.0000 0.29449  0.06534  0.11521  Biso   1.000  O
  O5       1.0000 0.73974  0.52051  0.12271  Biso   1.000  O
  O6       1.0000 0.83932  0.97568  0.13022  Biso   1.000  O
  Ir2      1.0000 0.05537  0.19788  0.13488  Biso   1.000  Ir
  O7       1.0000 0.27143  0.42007  0.13954  Biso   1.000  O
  O8       1.0000 0.37098  0.87524  0.14705  Biso   1.000  O
  O9       1.0000 0.81626  0.33040  0.15456  Biso   1.000  O
  Ir3      1.0000 0.37801  0.55260  0.15923  Biso   1.000  Ir
  O10      1.0000 0.93977  0.77479  0.16388  Biso   1.000  O
  O11      1.0000 0.38502  0.22996  0.17140  Biso   1.000  O
  O12      1.0000 0.48460  0.68513  0.17890  Biso   1.000  O
  Ir4      1.0000 0.70065  0.90732  0.18357  Biso   1.000  Ir
  O13      1.0000 0.91671  0.12952  0.18822  Biso   1.000  O
  O14      1.0000 0.01626  0.58468  0.19574  Biso   1.000  O
  O15      1.0000 0.46154  0.03985  0.20324  Biso   1.000  O
  Ir5      1.0000 0.02329  0.26205  0.20791  Biso   1.000  Ir
  O16      1.0000 0.58505  0.48424  0.21256  Biso   1.000  O
  O17      1.0000 0.03030  0.93941  0.22008  Biso   1.000  O
  O18      1.0000 0.12988  0.39458  0.22759  Biso   1.000  O
  Ir6      1.0000 0.34593  0.61677  0.23225  Biso   1.000  Ir
  O19      1.0000 0.56198  0.83897  0.23690  Biso   1.000  O
  O20      1.0000 0.66153  0.29413  0.24442  Biso   1.000  O
  O21      1.0000 0.10682  0.74930  0.25193  Biso   1.000  O
  Ir7      1.0000 0.66856  0.97149  0.25659  Biso   1.000  Ir
  O22      1.0000 0.23032  0.19368  0.26125  Biso   1.000  O
  O23      1.0000 0.67557  0.64885  0.26876  Biso   1.000  O
  O24      1.0000 0.77515  0.10402  0.27627  Biso   1.000  O
  Ir8      1.0000 0.99120  0.32622  0.28094  Biso   1.000  Ir
  O25      1.0000 0.20726  0.54841  0.28559  Biso   1.000  O
  O26      1.0000 0.30681  0.00358  0.29311  Biso   1.000  O
  O27      1.0000 0.75209  0.45874  0.30061  Biso   1.000  O
  Ir9      1.0000 0.31384  0.68094  0.30528  Biso   1.000  Ir
  O28      1.0000 0.87560  0.90313  0.30993  Biso   1.000  O
  O29      1.0000 0.32085  0.35830  0.31745  Biso   1.000  O
  O30      1.0000 0.42043  0.81347  0.32495  Biso   1.000  O
  Ir10     1.0000 0.63648  0.03566  0.32962  Biso   1.000  Ir
  O31      1.0000 0.85254  0.25786  0.33427  Biso   1.000  O
  O32      1.0000 0.95209  0.71302  0.34179  Biso   1.000  O
  O33      1.0000 0.39737  0.16819  0.34930  Biso   1.000  O
  Ir11     1.0000 0.95912  0.39039  0.35396  Biso   1.000  Ir
  O34      1.0000 0.52088  0.61258  0.35861  Biso   1.000  O
  O35      1.0000 0.96613  0.06775  0.36613  Biso   1.000  O
  O36      1.0000 0.06571  0.52292  0.37364  Biso   1.000  O
  Ir12     1.0000 0.28176  0.74511  0.37830  Biso   1.000  Ir
  O37      1.0000 0.49781  0.96731  0.38296  Biso   1.000  O
  O38      1.0000 0.59736  0.42247  0.39046  Biso   1.000  O
  O39      1.0000 0.04265  0.87764  0.39798  Biso   1.000  O
  Ir13     1.0000 0.60439  0.09983  0.40263  Biso   1.000  Ir
  O40      1.0000 0.16615  0.32202  0.40730  Biso   1.000  O
  O41      1.0000 0.61140  0.77719  0.41480  Biso   1.000  O
  O42      1.0000 0.71098  0.23236  0.42232  Biso   1.000  O
  Ir14     1.0000 0.92703  0.45456  0.42697  Biso   1.000  Ir
  O43      1.0000 0.14309  0.67675  0.43164  Biso   1.000  O
  O44      1.0000 0.24264  0.13192  0.43915  Biso   1.000  O
  O45      1.0000 0.68792  0.58708  0.44666  Biso   1.000  O
  Ir15     1.0000 0.24967  0.80928  0.45132  Biso   1.000  Ir
  O46      1.0000 0.81143  0.03147  0.45598  Biso   1.000  O
  O47      1.0000 0.25668  0.48664  0.46349  Biso   1.000  O
  O48      1.0000 0.35626  0.94181  0.47101  Biso   1.000  O
  Ir16     1.0000 0.57231  0.16400  0.47566  Biso   1.000  Ir
  O49      1.0000 0.78837  0.38620  0.48032  Biso   1.000  O
  O50      1.0000 0.88792  0.84136  0.48783  Biso   1.000  O
  O51      1.0000 0.33320  0.29653  0.49535  Biso   1.000  O
  Ir17     1.0000 0.89495  0.51873  0.50000  Biso   1.000  Ir
  O52      1.0000 0.45671  0.74092  0.50466  Biso   1.000  O
  O53      1.0000 0.90196  0.19609  0.51217  Biso   1.000  O
  O54      1.0000 0.00154  0.65126  0.51969  Biso   1.000  O
  Ir18     1.0000 0.21759  0.87345  0.52434  Biso   1.000  Ir
  O55      1.0000 0.43364  0.09565  0.52901  Biso   1.000  O
  O56      1.0000 0.53319  0.55081  0.53651  Biso   1.000  O
  O57      1.0000 0.97848  0.00597  0.54403  Biso   1.000  O
  Ir19     1.0000 0.54022  0.22817  0.54868  Biso   1.000  Ir
  O58      1.0000 0.10198  0.45036  0.55335  Biso   1.000  O
  O59      1.0000 0.54723  0.90553  0.56085  Biso   1.000  O
  O60      1.0000 0.64681  0.36070  0.56837  Biso   1.000  O
  Ir20     1.0000 0.86286  0.58290  0.57303  Biso   1.000  Ir
  O61      1.0000 0.07892  0.80509  0.57769  Biso   1.000  O
  O62      1.0000 0.17847  0.26026  0.58520  Biso   1.000  O
  O63      1.0000 0.62375  0.71542  0.59272  Biso   1.000  O
  Ir21     1.0000 0.18550  0.93762  0.59737  Biso   1.000  Ir
  O64      1.0000 0.74726  0.15981  0.60203  Biso   1.000  O
  O65      1.0000 0.19251  0.61498  0.60954  Biso   1.000  O
  O66      1.0000 0.29209  0.07015  0.61706  Biso   1.000  O
  Ir22     1.0000 0.50814  0.29234  0.62171  Biso   1.000  Ir
  O67      1.0000 0.72420  0.51454  0.62637  Biso   1.000  O
  O68      1.0000 0.82375  0.96970  0.63388  Biso   1.000  O
  O69      1.0000 0.26903  0.42487  0.64140  Biso   1.000  O
  Ir23     1.0000 0.83078  0.64707  0.64605  Biso   1.000  Ir
  O70      1.0000 0.39254  0.86926  0.65072  Biso   1.000  O
  O71      1.0000 0.83779  0.32443  0.65822  Biso   1.000  O
  O72      1.0000 0.93737  0.77960  0.66573  Biso   1.000  O
  Ir24     1.0000 0.15342  0.00179  0.67039  Biso   1.000  Ir
  O73      1.0000 0.36947  0.22399  0.67506  Biso   1.000  O
  O74      1.0000 0.46902  0.67915  0.68256  Biso   1.000  O
  O75      1.0000 0.91431  0.13431  0.69008  Biso   1.000  O
  Ir25     1.0000 0.47605  0.35651  0.69474  Biso   1.000  Ir
  O76      1.0000 0.03781  0.57870  0.69940  Biso   1.000  O
  O77      1.0000 0.48306  0.03387  0.70691  Biso   1.000  O
  O78      1.0000 0.58264  0.48904  0.71441  Biso   1.000  O
  Ir26     1.0000 0.79869  0.71124  0.71908  Biso   1.000  Ir
  O79      1.0000 0.01475  0.93343  0.72373  Biso   1.000  O
  O80      1.0000 0.11430  0.38860  0.73125  Biso   1.000  O
  O81      1.0000 0.55958  0.84376  0.73875  Biso   1.000  O
  Ir27     1.0000 0.12133  0.06596  0.74342  Biso   1.000  Ir
  O82      1.0000 0.68309  0.28815  0.74808  Biso   1.000  O
  O83      1.0000 0.12834  0.74332  0.75559  Biso   1.000  O
  O84      1.0000 0.22792  0.19849  0.76310  Biso   1.000  O
  Ir28     1.0000 0.44397  0.42068  0.76776  Biso   1.000  Ir
  O85      1.0000 0.66003  0.64288  0.77241  Biso   1.000  O
  O86      1.0000 0.75958  0.09804  0.77993  Biso   1.000  O
  O87      1.0000 0.20486  0.55321  0.78744  Biso   1.000  O
  Ir29     1.0000 0.76661  0.77541  0.79210  Biso   1.000  Ir
  O88      1.0000 0.32837  0.99760  0.79676  Biso   1.000  O
  O89      1.0000 0.77362  0.45277  0.80427  Biso   1.000  O
  O90      1.0000 0.87320  0.90794  0.81178  Biso   1.000  O
  Ir30     1.0000 0.08925  0.13013  0.81645  Biso   1.000  Ir
  O91      1.0000 0.30530  0.35233  0.82110  Biso   1.000  O
  O92      1.0000 0.40485  0.80749  0.82862  Biso   1.000  O
  O93      1.0000 0.85014  0.26265  0.83612  Biso   1.000  O
  Ir31     1.0000 0.41188  0.48485  0.84079  Biso   1.000  Ir
  O94      1.0000 0.97364  0.70704  0.84544  Biso   1.000  O
  O95      1.0000 0.41889  0.16221  0.85296  Biso   1.000  O
  O96      1.0000 0.51847  0.61738  0.86046  Biso   1.000  O
  Ir32     1.0000 0.73452  0.83958  0.86513  Biso   1.000  Ir
  O97      1.0000 0.95058  0.06177  0.86978  Biso   1.000  O
  O98      1.0000 0.05013  0.51694  0.87730  Biso   1.000  O
  O99      1.0000 0.49541  0.97210  0.88481  Biso   1.000  O
  Ir33     1.0000 0.05716  0.19430  0.88947  Biso   1.000  Ir
  O100     1.0000 0.61892  0.41649  0.89412  Biso   1.000  O
  O101     1.0000 0.06417  0.87166  0.90164  Biso   1.000  O
  O102     1.0000 0.16375  0.32683  0.90915  Biso   1.000  O
