data_image0
_cell_length_a       4.88305
_cell_length_b       5.1456
_cell_length_c       98.6266
_cell_angle_alpha    90
_cell_angle_beta     90
_cell_angle_gamma    61.674

_symmetry_space_group_name_H-M    "P 1"
_symmetry_int_tables_number       1

loop_
  _symmetry_equiv_pos_as_xyz
  'x, y, z'

loop_
  _atom_site_label
  _atom_site_occupancy
  _atom_site_fract_x
  _atom_site_fract_y
  _atom_site_fract_z
  _atom_site_thermal_displace_type
  _atom_site_B_iso_or_equiv
  _atom_site_type_symbol
  O1       1.0000 0.33560  0.29173  0.07604  Biso   1.000  O
  O2       1.0000 0.43515  0.74690  0.08233  Biso   1.000  O
  O3       1.0000 0.88043  0.20206  0.08862  Biso   1.000  O
  Ir1      1.0000 0.44218  0.42426  0.09251  Biso   1.000  Ir
  O4       1.0000 0.00394  0.64645  0.09642  Biso   1.000  O
  O5       1.0000 0.44919  0.10162  0.10270  Biso   1.000  O
  O6       1.0000 0.54877  0.55679  0.10898  Biso   1.000  O
  Ir2      1.0000 0.76482  0.77898  0.11289  Biso   1.000  Ir
  O7       1.0000 0.98088  0.00118  0.11679  Biso   1.000  O
  O8       1.0000 0.08043  0.45634  0.12308  Biso   1.000  O
  O9       1.0000 0.52571  0.91151  0.12936  Biso   1.000  O
  Ir3      1.0000 0.08746  0.13371  0.13326  Biso   1.000  Ir
  O10      1.0000 0.64922  0.35590  0.13717  Biso   1.000  O
  O11      1.0000 0.09447  0.81107  0.14345  Biso   1.000  O
  O12      1.0000 0.19405  0.26624  0.14973  Biso   1.000  O
  Ir4      1.0000 0.41010  0.48843  0.15364  Biso   1.000  Ir
  O13      1.0000 0.62615  0.71063  0.15753  Biso   1.000  O
  O14      1.0000 0.72570  0.16579  0.16383  Biso   1.000  O
  O15      1.0000 0.17099  0.62096  0.17011  Biso   1.000  O
  Ir5      1.0000 0.73273  0.84315  0.17401  Biso   1.000  Ir
  O16      1.0000 0.29449  0.06534  0.17792  Biso   1.000  O
  O17      1.0000 0.73974  0.52051  0.18420  Biso   1.000  O
  O18      1.0000 0.83932  0.97568  0.19048  Biso   1.000  O
  Ir6      1.0000 0.05537  0.19788  0.19439  Biso   1.000  Ir
  O19      1.0000 0.27143  0.42007  0.19828  Biso   1.000  O
  O20      1.0000 0.37098  0.87524  0.20457  Biso   1.000  O
  O21      1.0000 0.81626  0.33040  0.21086  Biso   1.000  O
  Ir7      1.0000 0.37801  0.55260  0.21476  Biso   1.000  Ir
  O22      1.0000 0.93977  0.77479  0.21866  Biso   1.000  O
  O23      1.0000 0.38502  0.22996  0.22495  Biso   1.000  O
  O24      1.0000 0.48460  0.68513  0.23123  Biso   1.000  O
  Ir8      1.0000 0.70065  0.90732  0.23514  Biso   1.000  Ir
  O25      1.0000 0.91671  0.12952  0.23903  Biso   1.000  O
  O26      1.0000 0.01626  0.58468  0.24532  Biso   1.000  O
  O27      1.0000 0.46154  0.03985  0.25161  Biso   1.000  O
  Ir9      1.0000 0.02329  0.26205  0.25551  Biso   1.000  Ir
  O28      1.0000 0.58505  0.48424  0.25940  Biso   1.000  O
  O29      1.0000 0.03030  0.93941  0.26570  Biso   1.000  O
  O30      1.0000 0.12988  0.39458  0.27198  Biso   1.000  O
  Ir10     1.0000 0.34593  0.61677  0.27589  Biso   1.000  Ir
  O31      1.0000 0.56198  0.83897  0.27978  Biso   1.000  O
  O32      1.0000 0.66153  0.29413  0.28607  Biso   1.000  O
  O33      1.0000 0.10682  0.74930  0.29236  Biso   1.000  O
  Ir11     1.0000 0.66856  0.97149  0.29626  Biso   1.000  Ir
  O34      1.0000 0.23032  0.19368  0.30015  Biso   1.000  O
  O35      1.0000 0.67557  0.64885  0.30645  Biso   1.000  O
  O36      1.0000 0.77515  0.10402  0.31273  Biso   1.000  O
  Ir12     1.0000 0.99120  0.32622  0.31663  Biso   1.000  Ir
  O37      1.0000 0.20726  0.54841  0.32053  Biso   1.000  O
  O38      1.0000 0.30681  0.00358  0.32682  Biso   1.000  O
  O39      1.0000 0.75209  0.45874  0.33310  Biso   1.000  O
  Ir13     1.0000 0.31384  0.68094  0.33701  Biso   1.000  Ir
  O40      1.0000 0.87560  0.90313  0.34090  Biso   1.000  O
  O41      1.0000 0.32085  0.35830  0.34720  Biso   1.000  O
  O42      1.0000 0.42043  0.81347  0.35348  Biso   1.000  O
  Ir14     1.0000 0.63648  0.03566  0.35738  Biso   1.000  Ir
  O43      1.0000 0.85254  0.25786  0.36128  Biso   1.000  O
  O44      1.0000 0.95209  0.71302  0.36757  Biso   1.000  O
  O45      1.0000 0.39737  0.16819  0.37385  Biso   1.000  O
  Ir15     1.0000 0.95912  0.39039  0.37776  Biso   1.000  Ir
  O46      1.0000 0.52088  0.61258  0.38165  Biso   1.000  O
  O47      1.0000 0.96613  0.06775  0.38795  Biso   1.000  O
  O48      1.0000 0.06571  0.52292  0.39423  Biso   1.000  O
  Ir16     1.0000 0.28176  0.74511  0.39813  Biso   1.000  Ir
  O49      1.0000 0.49781  0.96731  0.40203  Biso   1.000  O
  O50      1.0000 0.59736  0.42247  0.40831  Biso   1.000  O
  O51      1.0000 0.04265  0.87764  0.41460  Biso   1.000  O
  Ir17     1.0000 0.60439  0.09983  0.41850  Biso   1.000  Ir
  O52      1.0000 0.16615  0.32202  0.42240  Biso   1.000  O
  O53      1.0000 0.61140  0.77719  0.42868  Biso   1.000  O
  O54      1.0000 0.71098  0.23236  0.43498  Biso   1.000  O
  Ir18     1.0000 0.92703  0.45456  0.43887  Biso   1.000  Ir
  O55      1.0000 0.14309  0.67675  0.44278  Biso   1.000  O
  O56      1.0000 0.24264  0.13192  0.44906  Biso   1.000  O
  O57      1.0000 0.68792  0.58708  0.45535  Biso   1.000  O
  Ir19     1.0000 0.24967  0.80928  0.45925  Biso   1.000  Ir
  O58      1.0000 0.81143  0.03147  0.46315  Biso   1.000  O
  O59      1.0000 0.25668  0.48664  0.46943  Biso   1.000  O
  O60      1.0000 0.35626  0.94181  0.47573  Biso   1.000  O
  Ir20     1.0000 0.57231  0.16400  0.47962  Biso   1.000  Ir
  O61      1.0000 0.78837  0.38620  0.48352  Biso   1.000  O
  O62      1.0000 0.88792  0.84136  0.48981  Biso   1.000  O
  O63      1.0000 0.33320  0.29653  0.49610  Biso   1.000  O
  Ir21     1.0000 0.89495  0.51873  0.49999  Biso   1.000  Ir
  O64      1.0000 0.45671  0.74092  0.50390  Biso   1.000  O
  O65      1.0000 0.90196  0.19609  0.51018  Biso   1.000  O
  O66      1.0000 0.00154  0.65126  0.51648  Biso   1.000  O
  Ir22     1.0000 0.21759  0.87345  0.52037  Biso   1.000  Ir
  O67      1.0000 0.43364  0.09565  0.52427  Biso   1.000  O
  O68      1.0000 0.53319  0.55081  0.53056  Biso   1.000  O
  O69      1.0000 0.97848  0.00597  0.53685  Biso   1.000  O
  Ir23     1.0000 0.54022  0.22817  0.54074  Biso   1.000  Ir
  O70      1.0000 0.10198  0.45036  0.54465  Biso   1.000  O
  O71      1.0000 0.54723  0.90553  0.55093  Biso   1.000  O
  O72      1.0000 0.64681  0.36070  0.55722  Biso   1.000  O
  Ir24     1.0000 0.86286  0.58290  0.56112  Biso   1.000  Ir
  O73      1.0000 0.07892  0.80509  0.56502  Biso   1.000  O
  O74      1.0000 0.17847  0.26026  0.57131  Biso   1.000  O
  O75      1.0000 0.62375  0.71542  0.57760  Biso   1.000  O
  Ir25     1.0000 0.18550  0.93762  0.58149  Biso   1.000  Ir
  O76      1.0000 0.74726  0.15981  0.58540  Biso   1.000  O
  O77      1.0000 0.19251  0.61498  0.59168  Biso   1.000  O
  O78      1.0000 0.29209  0.07015  0.59797  Biso   1.000  O
  Ir26     1.0000 0.50814  0.29234  0.60187  Biso   1.000  Ir
  O79      1.0000 0.72420  0.51454  0.60577  Biso   1.000  O
  O80      1.0000 0.82375  0.96970  0.61205  Biso   1.000  O
  O81      1.0000 0.26903  0.42487  0.61835  Biso   1.000  O
  Ir27     1.0000 0.83078  0.64707  0.62224  Biso   1.000  Ir
  O82      1.0000 0.39254  0.86926  0.62615  Biso   1.000  O
  O83      1.0000 0.83779  0.32443  0.63243  Biso   1.000  O
  O84      1.0000 0.93737  0.77960  0.63871  Biso   1.000  O
  Ir28     1.0000 0.15342  0.00179  0.64262  Biso   1.000  Ir
  O85      1.0000 0.36947  0.22399  0.64652  Biso   1.000  O
  O86      1.0000 0.46902  0.67915  0.65280  Biso   1.000  O
  O87      1.0000 0.91431  0.13431  0.65910  Biso   1.000  O
  Ir29     1.0000 0.47605  0.35651  0.66299  Biso   1.000  Ir
  O88      1.0000 0.03781  0.57870  0.66690  Biso   1.000  O
  O89      1.0000 0.48306  0.03387  0.67318  Biso   1.000  O
  O90      1.0000 0.58264  0.48904  0.67946  Biso   1.000  O
  Ir30     1.0000 0.79869  0.71124  0.68337  Biso   1.000  Ir
  O91      1.0000 0.01475  0.93343  0.68726  Biso   1.000  O
  O92      1.0000 0.11430  0.38860  0.69355  Biso   1.000  O
  O93      1.0000 0.55958  0.84376  0.69984  Biso   1.000  O
  Ir31     1.0000 0.12133  0.06596  0.70374  Biso   1.000  Ir
  O94      1.0000 0.68309  0.28815  0.70764  Biso   1.000  O
  O95      1.0000 0.12834  0.74332  0.71393  Biso   1.000  O
  O96      1.0000 0.22792  0.19849  0.72021  Biso   1.000  O
  Ir32     1.0000 0.44397  0.42068  0.72411  Biso   1.000  Ir
  O97      1.0000 0.66003  0.64288  0.72801  Biso   1.000  O
  O98      1.0000 0.75958  0.09804  0.73430  Biso   1.000  O
  O99      1.0000 0.20486  0.55321  0.74058  Biso   1.000  O
  Ir33     1.0000 0.76661  0.77541  0.74449  Biso   1.000  Ir
  O100     1.0000 0.32837  0.99760  0.74838  Biso   1.000  O
  O101     1.0000 0.77362  0.45277  0.75468  Biso   1.000  O
  O102     1.0000 0.87320  0.90794  0.76096  Biso   1.000  O
  Ir34     1.0000 0.08925  0.13013  0.76486  Biso   1.000  Ir
  O103     1.0000 0.30530  0.35233  0.76876  Biso   1.000  O
  O104     1.0000 0.40485  0.80749  0.77505  Biso   1.000  O
  O105     1.0000 0.85014  0.26265  0.78133  Biso   1.000  O
  Ir35     1.0000 0.41188  0.48485  0.78524  Biso   1.000  Ir
  O106     1.0000 0.97364  0.70704  0.78913  Biso   1.000  O
  O107     1.0000 0.41889  0.16221  0.79543  Biso   1.000  O
  O108     1.0000 0.51847  0.61738  0.80171  Biso   1.000  O
  Ir36     1.0000 0.73452  0.83958  0.80561  Biso   1.000  Ir
  O109     1.0000 0.95058  0.06177  0.80951  Biso   1.000  O
  O110     1.0000 0.05013  0.51694  0.81580  Biso   1.000  O
  O111     1.0000 0.49541  0.97210  0.82208  Biso   1.000  O
  Ir37     1.0000 0.05716  0.19430  0.82599  Biso   1.000  Ir
  O112     1.0000 0.61892  0.41649  0.82988  Biso   1.000  O
  O113     1.0000 0.06417  0.87166  0.83617  Biso   1.000  O
  O114     1.0000 0.16375  0.32683  0.84246  Biso   1.000  O
  Ir38     1.0000 0.37980  0.54902  0.84636  Biso   1.000  Ir
  O115     1.0000 0.59586  0.77122  0.85026  Biso   1.000  O
  O116     1.0000 0.69541  0.22638  0.85655  Biso   1.000  O
  O117     1.0000 0.14069  0.68155  0.86283  Biso   1.000  O
  Ir39     1.0000 0.70244  0.90375  0.86674  Biso   1.000  Ir
  O118     1.0000 0.26420  0.12594  0.87063  Biso   1.000  O
  O119     1.0000 0.70945  0.58111  0.87692  Biso   1.000  O
  O120     1.0000 0.80903  0.03628  0.88321  Biso   1.000  O
  Ir40     1.0000 0.02508  0.25847  0.88711  Biso   1.000  Ir
  O121     1.0000 0.24113  0.48067  0.89100  Biso   1.000  O
  O122     1.0000 0.34068  0.93583  0.89730  Biso   1.000  O
  O123     1.0000 0.78597  0.39099  0.90358  Biso   1.000  O
  Ir41     1.0000 0.34771  0.61319  0.90749  Biso   1.000  Ir
  O124     1.0000 0.90947  0.83538  0.91138  Biso   1.000  O
  O125     1.0000 0.35472  0.29055  0.91767  Biso   1.000  O
  O126     1.0000 0.45430  0.74572  0.92396  Biso   1.000  O
