data_image0
_cell_length_a       7.0938
_cell_length_b       9.766
_cell_length_c       24.3345
_cell_angle_alpha    90
_cell_angle_beta     90
_cell_angle_gamma    90

_symmetry_space_group_name_H-M    "P 1"
_symmetry_int_tables_number       1

loop_
  _symmetry_equiv_pos_as_xyz
  'x, y, z'

loop_
  _atom_site_label
  _atom_site_occupancy
  _atom_site_fract_x
  _atom_site_fract_y
  _atom_site_fract_z
  _atom_site_thermal_displace_type
  _atom_site_B_iso_or_equiv
  _atom_site_type_symbol
  Ir1      1.0000 0.82849  0.00000  0.30820  Biso   1.000  Ir
  Ir2      1.0000 0.30232  0.25000  0.41366  Biso   1.000  Ir
  Ir3      1.0000 0.77670  0.00059  0.51943  Biso   1.000  Ir
  Ir4      1.0000 0.24451  0.24800  0.63222  Biso   1.000  Ir
  Ir5      1.0000 0.32849  0.00000  0.30820  Biso   1.000  Ir
  Ir6      1.0000 0.80232  0.25000  0.41366  Biso   1.000  Ir
  Ir7      1.0000 0.27659  0.99965  0.51947  Biso   1.000  Ir
  Ir8      1.0000 0.74447  0.25376  0.63238  Biso   1.000  Ir
  Ir9      1.0000 0.82849  0.50000  0.30820  Biso   1.000  Ir
  Ir10     1.0000 0.30232  0.75000  0.41366  Biso   1.000  Ir
  Ir11     1.0000 0.77669  0.50063  0.51937  Biso   1.000  Ir
  Ir12     1.0000 0.24566  0.74714  0.63245  Biso   1.000  Ir
  Ir13     1.0000 0.32849  0.50000  0.30820  Biso   1.000  Ir
  Ir14     1.0000 0.80232  0.75000  0.41366  Biso   1.000  Ir
  Ir15     1.0000 0.27661  0.49971  0.51934  Biso   1.000  Ir
  Ir16     1.0000 0.74557  0.75304  0.63245  Biso   1.000  Ir
  O1       1.0000 0.74229  0.16358  0.34466  Biso   1.000  O
  O2       1.0000 0.21613  0.41358  0.45010  Biso   1.000  O
  O3       1.0000 0.69924  0.15900  0.55773  Biso   1.000  O
  O4       1.0000 0.14718  0.39775  0.66218  Biso   1.000  O
  O5       1.0000 0.24230  0.33643  0.34466  Biso   1.000  O
  O6       1.0000 0.71613  0.08643  0.45011  Biso   1.000  O
  O7       1.0000 0.19890  0.34140  0.55771  Biso   1.000  O
  O8       1.0000 0.64641  0.10414  0.66219  Biso   1.000  O
  O9       1.0000 0.88852  0.41358  0.37720  Biso   1.000  O
  O10      1.0000 0.36236  0.16358  0.48265  Biso   1.000  O
  O11      1.0000 0.82607  0.40332  0.58607  Biso   1.000  O
  O12      1.0000 0.32759  0.16259  0.69135  Biso   1.000  O
  O13      1.0000 0.38851  0.08643  0.37719  Biso   1.000  O
  O14      1.0000 0.86235  0.33643  0.48265  Biso   1.000  O
  O15      1.0000 0.32504  0.09740  0.58615  Biso   1.000  O
  O16      1.0000 0.57849  0.42284  0.30820  Biso   1.000  O
  O17      1.0000 0.05232  0.17284  0.41366  Biso   1.000  O
  O18      1.0000 0.52625  0.42378  0.51810  Biso   1.000  O
  O19      1.0000 0.99870  0.16888  0.62468  Biso   1.000  O
  O20      1.0000 0.07849  0.07715  0.30820  Biso   1.000  O
  O21      1.0000 0.55232  0.32715  0.41366  Biso   1.000  O
  O22      1.0000 0.02623  0.07647  0.51794  Biso   1.000  O
  O23      1.0000 0.49913  0.33285  0.62409  Biso   1.000  O
  O24      1.0000 0.74229  0.66358  0.34466  Biso   1.000  O
  O25      1.0000 0.21613  0.91358  0.45010  Biso   1.000  O
  O26      1.0000 0.69917  0.65891  0.55774  Biso   1.000  O
  O27      1.0000 0.14828  0.89636  0.66274  Biso   1.000  O
  O28      1.0000 0.24230  0.83643  0.34466  Biso   1.000  O
  O29      1.0000 0.71613  0.58643  0.45011  Biso   1.000  O
  O30      1.0000 0.19887  0.84161  0.55792  Biso   1.000  O
  O31      1.0000 0.64729  0.60362  0.66236  Biso   1.000  O
  O32      1.0000 0.88852  0.91358  0.37720  Biso   1.000  O
  O33      1.0000 0.36236  0.66358  0.48265  Biso   1.000  O
  O34      1.0000 0.82617  0.90307  0.58609  Biso   1.000  O
  O35      1.0000 0.32789  0.66026  0.69137  Biso   1.000  O
  O36      1.0000 0.38851  0.58643  0.37719  Biso   1.000  O
  O37      1.0000 0.86235  0.83643  0.48265  Biso   1.000  O
  O38      1.0000 0.32533  0.59722  0.58601  Biso   1.000  O
  O39      1.0000 0.82656  0.83956  0.69159  Biso   1.000  O
  O40      1.0000 0.57849  0.92284  0.30820  Biso   1.000  O
  O41      1.0000 0.05232  0.67284  0.41366  Biso   1.000  O
  O42      1.0000 0.52622  0.92396  0.51817  Biso   1.000  O
  O43      1.0000 0.99943  0.66836  0.62463  Biso   1.000  O
  O44      1.0000 0.07849  0.57715  0.30820  Biso   1.000  O
  O45      1.0000 0.55232  0.82715  0.41366  Biso   1.000  O
  O46      1.0000 0.02619  0.57647  0.51791  Biso   1.000  O
  O47      1.0000 0.49977  0.83185  0.62428  Biso   1.000  O
  O48      1.0000 0.82510  0.33980  0.69166  Biso   1.000  O
