data_image0
_cell_length_a       5.2086
_cell_length_b       5.2086
_cell_length_c       4.83369
_cell_angle_alpha    100.544
_cell_angle_beta     100.544
_cell_angle_gamma    119.983

_symmetry_space_group_name_H-M    "P 1"
_symmetry_int_tables_number       1

loop_
  _symmetry_equiv_pos_as_xyz
  'x, y, z'

loop_
  _atom_site_label
  _atom_site_occupancy
  _atom_site_fract_x
  _atom_site_fract_y
  _atom_site_fract_z
  _atom_site_thermal_displace_type
  _atom_site_B_iso_or_equiv
  _atom_site_type_symbol
  Ir1      1.0000 0.16644  0.83357  0.00000  Biso   1.000  Ir
  Ir2      1.0000 0.00000  0.00000  0.50000  Biso   1.000  Ir
  O1       1.0000 0.95963  0.57822  0.22942  Biso   1.000  O
  O2       1.0000 0.57822  0.95963  0.22942  Biso   1.000  O
  O3       1.0000 0.19535  0.19535  0.23171  Biso   1.000  O
  O4       1.0000 0.80466  0.80466  0.76829  Biso   1.000  O
  O5       1.0000 0.42179  0.04037  0.77058  Biso   1.000  O
  O6       1.0000 0.04037  0.42179  0.77058  Biso   1.000  O
