data_image0
_cell_length_a       9.3927
_cell_length_b       8.72335
_cell_length_c       27.0937
_cell_angle_alpha    90
_cell_angle_beta     90
_cell_angle_gamma    90

_symmetry_space_group_name_H-M    "P 1"
_symmetry_int_tables_number       1

loop_
  _symmetry_equiv_pos_as_xyz
  'x, y, z'

loop_
  _atom_site_label
  _atom_site_occupancy
  _atom_site_fract_x
  _atom_site_fract_y
  _atom_site_fract_z
  _atom_site_thermal_displace_type
  _atom_site_B_iso_or_equiv
  _atom_site_type_symbol
  O1       1.0000 0.19637  0.32474  0.27682  Biso   1.000  O
  O2       1.0000 0.19637  0.67526  0.27682  Biso   1.000  O
  O3       1.0000 0.44636  0.17526  0.28985  Biso   1.000  O
  O4       1.0000 0.44636  0.82474  0.28985  Biso   1.000  O
  O5       1.0000 0.43034  0.50000  0.29540  Biso   1.000  O
  O6       1.0000 0.24999  0.50000  0.35792  Biso   1.000  O
  O7       1.0000 0.23397  0.17526  0.36348  Biso   1.000  O
  O8       1.0000 0.23397  0.82474  0.36348  Biso   1.000  O
  O9       1.0000 0.48397  0.32474  0.37652  Biso   1.000  O
  O10      1.0000 0.48397  0.67526  0.37652  Biso   1.000  O
  O11      1.0000 0.50000  0.00000  0.38207  Biso   1.000  O
  O12      1.0000 0.18034  0.00000  0.44458  Biso   1.000  O
  O13      1.0000 0.19637  0.32474  0.45015  Biso   1.000  O
  O14      1.0000 0.19637  0.67526  0.45015  Biso   1.000  O
  O15      1.0000 0.44636  0.17526  0.46318  Biso   1.000  O
  O16      1.0000 0.44636  0.82474  0.46318  Biso   1.000  O
  O17      1.0000 0.43034  0.50000  0.46873  Biso   1.000  O
  O18      1.0000 0.24999  0.50000  0.53127  Biso   1.000  O
  O19      1.0000 0.23397  0.17526  0.53682  Biso   1.000  O
  O20      1.0000 0.23397  0.82474  0.53682  Biso   1.000  O
  O21      1.0000 0.48348  0.32313  0.55034  Biso   1.000  O
  O22      1.0000 0.48339  0.67633  0.55045  Biso   1.000  O
  O23      1.0000 0.49934  0.99927  0.55793  Biso   1.000  O
  O24      1.0000 0.18318  0.99976  0.61780  Biso   1.000  O
  O25      1.0000 0.20277  0.32511  0.62096  Biso   1.000  O
  O26      1.0000 0.20306  0.67485  0.62082  Biso   1.000  O
  O27      1.0000 0.45233  0.17810  0.63904  Biso   1.000  O
  O28      1.0000 0.45323  0.82070  0.63948  Biso   1.000  O
  O29      1.0000 0.41780  0.50110  0.64013  Biso   1.000  O
  O30      1.0000 0.24728  0.49948  0.70616  Biso   1.000  O
  O31      1.0000 0.22619  0.18826  0.70414  Biso   1.000  O
  O32      1.0000 0.22459  0.80967  0.70392  Biso   1.000  O
  O33      1.0000 0.48237  0.33678  0.72283  Biso   1.000  O
  O34      1.0000 0.48159  0.66357  0.72370  Biso   1.000  O
  O35      1.0000 0.69637  0.32474  0.27682  Biso   1.000  O
  O36      1.0000 0.69637  0.67526  0.27682  Biso   1.000  O
  O37      1.0000 0.94636  0.17526  0.28985  Biso   1.000  O
  O38      1.0000 0.94636  0.82474  0.28985  Biso   1.000  O
  O39      1.0000 0.93034  0.50000  0.29540  Biso   1.000  O
  O40      1.0000 0.74999  0.50000  0.35792  Biso   1.000  O
  O41      1.0000 0.73397  0.17526  0.36348  Biso   1.000  O
  O42      1.0000 0.73397  0.82474  0.36348  Biso   1.000  O
  O43      1.0000 0.98397  0.32474  0.37652  Biso   1.000  O
  O44      1.0000 0.98397  0.67526  0.37652  Biso   1.000  O
  O45      1.0000 0.00000  0.00000  0.38207  Biso   1.000  O
  O46      1.0000 0.68034  0.00000  0.44458  Biso   1.000  O
  O47      1.0000 0.69637  0.32474  0.45015  Biso   1.000  O
  O48      1.0000 0.69637  0.67526  0.45015  Biso   1.000  O
  O49      1.0000 0.94636  0.17526  0.46318  Biso   1.000  O
  O50      1.0000 0.94636  0.82474  0.46318  Biso   1.000  O
  O51      1.0000 0.93034  0.50000  0.46873  Biso   1.000  O
  O52      1.0000 0.74999  0.50000  0.53127  Biso   1.000  O
  O53      1.0000 0.73397  0.17526  0.53682  Biso   1.000  O
  O54      1.0000 0.73397  0.82474  0.53682  Biso   1.000  O
  O55      1.0000 0.98369  0.32297  0.55032  Biso   1.000  O
  O56      1.0000 0.98350  0.67642  0.55040  Biso   1.000  O
  O57      1.0000 0.99940  0.99941  0.55793  Biso   1.000  O
  O58      1.0000 0.68338  0.99979  0.61776  Biso   1.000  O
  O59      1.0000 0.70181  0.32435  0.62113  Biso   1.000  O
  O60      1.0000 0.70272  0.67471  0.62120  Biso   1.000  O
  O61      1.0000 0.95256  0.17807  0.63913  Biso   1.000  O
  O62      1.0000 0.95298  0.82000  0.63919  Biso   1.000  O
  O63      1.0000 0.91686  0.49716  0.63965  Biso   1.000  O
  O64      1.0000 0.74731  0.49863  0.70610  Biso   1.000  O
  O65      1.0000 0.72624  0.18806  0.70446  Biso   1.000  O
  O66      1.0000 0.72926  0.80901  0.70539  Biso   1.000  O
  O67      1.0000 0.98226  0.33580  0.72334  Biso   1.000  O
  O68      1.0000 0.98503  0.65797  0.72227  Biso   1.000  O
  Ir1      1.0000 0.34016  0.32466  0.32667  Biso   1.000  Ir
  Ir2      1.0000 0.34016  0.67535  0.32667  Biso   1.000  Ir
  Ir3      1.0000 0.09016  0.17534  0.41333  Biso   1.000  Ir
  Ir4      1.0000 0.09016  0.82466  0.41333  Biso   1.000  Ir
  Ir5      1.0000 0.34016  0.32466  0.50000  Biso   1.000  Ir
  Ir6      1.0000 0.34016  0.67535  0.50000  Biso   1.000  Ir
  Ir7      1.0000 0.09231  0.17704  0.58732  Biso   1.000  Ir
  Ir8      1.0000 0.09244  0.82220  0.58738  Biso   1.000  Ir
  Ir9      1.0000 0.34652  0.32253  0.67801  Biso   1.000  Ir
  Ir10     1.0000 0.34713  0.67677  0.67838  Biso   1.000  Ir
  Ir11     1.0000 0.84017  0.32466  0.32667  Biso   1.000  Ir
  Ir12     1.0000 0.84017  0.67535  0.32667  Biso   1.000  Ir
  Ir13     1.0000 0.59016  0.17534  0.41333  Biso   1.000  Ir
  Ir14     1.0000 0.59016  0.82466  0.41333  Biso   1.000  Ir
  Ir15     1.0000 0.84017  0.32466  0.50000  Biso   1.000  Ir
  Ir16     1.0000 0.84017  0.67535  0.50000  Biso   1.000  Ir
  Ir17     1.0000 0.59212  0.17689  0.58735  Biso   1.000  Ir
  Ir18     1.0000 0.59233  0.82230  0.58748  Biso   1.000  Ir
  Ir19     1.0000 0.84700  0.32157  0.67824  Biso   1.000  Ir
  Ir20     1.0000 0.84768  0.67517  0.67803  Biso   1.000  Ir
