data_image0
_cell_length_a       5.9119
_cell_length_b       17.836
_cell_length_c       20
_cell_angle_alpha    90
_cell_angle_beta     90
_cell_angle_gamma    90

_symmetry_space_group_name_H-M    "P 1"
_symmetry_int_tables_number       1

loop_
  _symmetry_equiv_pos_as_xyz
  'x, y, z'

loop_
  _atom_site_label
  _atom_site_occupancy
  _atom_site_fract_x
  _atom_site_fract_y
  _atom_site_fract_z
  _atom_site_thermal_displace_type
  _atom_site_B_iso_or_equiv
  _atom_site_type_symbol
  Ir1      1.0000 0.75900  0.95824  0.29497  Biso   1.000  Ir
  Ir2      1.0000 0.75900  0.12529  0.29497  Biso   1.000  Ir
  Ir3      1.0000 0.25900  0.62529  0.29497  Biso   1.000  Ir
  Ir4      1.0000 0.25900  0.45824  0.29497  Biso   1.000  Ir
  Ir5      1.0000 0.27755  0.12666  0.50601  Biso   1.000  Ir
  Ir6      1.0000 0.27771  0.95741  0.50613  Biso   1.000  Ir
  Ir7      1.0000 0.74545  0.45812  0.50620  Biso   1.000  Ir
  Ir8      1.0000 0.74234  0.62746  0.50675  Biso   1.000  Ir
  Ir9      1.0000 0.57295  0.20164  0.61609  Biso   1.000  Ir
  Ir10     1.0000 0.57321  0.88363  0.61685  Biso   1.000  Ir
  Ir11     1.0000 0.44990  0.38256  0.61600  Biso   1.000  Ir
  Ir12     1.0000 0.44725  0.70166  0.61732  Biso   1.000  Ir
  Ir13     1.0000 0.00900  0.20836  0.40055  Biso   1.000  Ir
  Ir14     1.0000 0.00900  0.87517  0.40055  Biso   1.000  Ir
  Ir15     1.0000 0.00900  0.37517  0.40055  Biso   1.000  Ir
  Ir16     1.0000 0.00900  0.70836  0.40055  Biso   1.000  Ir
  O1       1.0000 0.79300  0.95676  0.39295  Biso   1.000  O
  O2       1.0000 0.79300  0.12676  0.39295  Biso   1.000  O
  O3       1.0000 0.22500  0.62676  0.39295  Biso   1.000  O
  O4       1.0000 0.22500  0.45676  0.39295  Biso   1.000  O
  O5       1.0000 0.99100  0.04176  0.28610  Biso   1.000  O
  O6       1.0000 0.02700  0.54176  0.28610  Biso   1.000  O
  O7       1.0000 0.52700  0.04176  0.30384  Biso   1.000  O
  O8       1.0000 0.49100  0.54176  0.30384  Biso   1.000  O
  O9       1.0000 0.53900  0.87977  0.29159  Biso   1.000  O
  O10      1.0000 0.53900  0.20376  0.29159  Biso   1.000  O
  O11      1.0000 0.47900  0.70376  0.29159  Biso   1.000  O
  O12      1.0000 0.47900  0.37977  0.29159  Biso   1.000  O
  O13      1.0000 0.97900  0.20376  0.29835  Biso   1.000  O
  O14      1.0000 0.97900  0.87977  0.29835  Biso   1.000  O
  O15      1.0000 0.03900  0.37977  0.29835  Biso   1.000  O
  O16      1.0000 0.03900  0.70376  0.29835  Biso   1.000  O
  O17      1.0000 0.77559  0.13231  0.62946  Biso   1.000  O
  O18      1.0000 0.30132  0.94115  0.60310  Biso   1.000  O
  O19      1.0000 0.30229  0.14327  0.60304  Biso   1.000  O
  O20      1.0000 0.77708  0.95278  0.62946  Biso   1.000  O
  O21      1.0000 0.24716  0.45190  0.62937  Biso   1.000  O
  O22      1.0000 0.72047  0.64439  0.60334  Biso   1.000  O
  O23      1.0000 0.72218  0.44096  0.60301  Biso   1.000  O
  O24      1.0000 0.24744  0.63095  0.62964  Biso   1.000  O
  O25      1.0000 0.22500  0.12676  0.40815  Biso   1.000  O
  O26      1.0000 0.22500  0.95676  0.40815  Biso   1.000  O
  O27      1.0000 0.79300  0.45676  0.40815  Biso   1.000  O
  O28      1.0000 0.79300  0.62676  0.40815  Biso   1.000  O
  O29      1.0000 0.72705  0.28496  0.59479  Biso   1.000  O
  O30      1.0000 0.28824  0.78347  0.59637  Biso   1.000  O
  O31      1.0000 0.29172  0.29973  0.59573  Biso   1.000  O
  O32      1.0000 0.72626  0.79997  0.59673  Biso   1.000  O
  O33      1.0000 0.22800  0.29176  0.40055  Biso   1.000  O
  O34      1.0000 0.79000  0.79176  0.40055  Biso   1.000  O
  O35      1.0000 0.79000  0.29176  0.40055  Biso   1.000  O
  O36      1.0000 0.22800  0.79176  0.40055  Biso   1.000  O
  O37      1.0000 0.08179  0.04209  0.52238  Biso   1.000  O
  O38      1.0000 0.94056  0.54275  0.52222  Biso   1.000  O
  O39      1.0000 0.47938  0.04207  0.50075  Biso   1.000  O
  O40      1.0000 0.54277  0.54235  0.50153  Biso   1.000  O
  O41      1.0000 0.53439  0.18975  0.51705  Biso   1.000  O
  O42      1.0000 0.47712  0.86318  0.69839  Biso   1.000  O
  O43      1.0000 0.48019  0.22339  0.69777  Biso   1.000  O
  O44      1.0000 0.53483  0.89411  0.51777  Biso   1.000  O
  O45      1.0000 0.48892  0.39432  0.51749  Biso   1.000  O
  O46      1.0000 0.54161  0.72230  0.69891  Biso   1.000  O
  O47      1.0000 0.54401  0.36093  0.69754  Biso   1.000  O
  O48      1.0000 0.48491  0.69034  0.51783  Biso   1.000  O
  O49      1.0000 0.03379  0.88847  0.49642  Biso   1.000  O
  O50      1.0000 0.03235  0.19548  0.49618  Biso   1.000  O
  O51      1.0000 0.98704  0.69574  0.49666  Biso   1.000  O
  O52      1.0000 0.99072  0.38900  0.49602  Biso   1.000  O
