data_image0
_cell_length_a       9.3927
_cell_length_b       8.72335
_cell_length_c       27.0937
_cell_angle_alpha    90
_cell_angle_beta     90
_cell_angle_gamma    90

_symmetry_space_group_name_H-M    "P 1"
_symmetry_int_tables_number       1

loop_
  _symmetry_equiv_pos_as_xyz
  'x, y, z'

loop_
  _atom_site_label
  _atom_site_occupancy
  _atom_site_fract_x
  _atom_site_fract_y
  _atom_site_fract_z
  _atom_site_thermal_displace_type
  _atom_site_B_iso_or_equiv
  _atom_site_type_symbol
  O1       1.0000 0.19637  0.32474  0.27682  Biso   1.000  O
  O2       1.0000 0.19637  0.67526  0.27682  Biso   1.000  O
  O3       1.0000 0.44636  0.17526  0.28985  Biso   1.000  O
  O4       1.0000 0.44636  0.82474  0.28985  Biso   1.000  O
  O5       1.0000 0.43034  0.50000  0.29540  Biso   1.000  O
  O6       1.0000 0.24999  0.50000  0.35792  Biso   1.000  O
  O7       1.0000 0.23397  0.17526  0.36348  Biso   1.000  O
  O8       1.0000 0.23397  0.82474  0.36348  Biso   1.000  O
  O9       1.0000 0.48397  0.32474  0.37652  Biso   1.000  O
  O10      1.0000 0.48397  0.67526  0.37652  Biso   1.000  O
  O11      1.0000 0.50000  0.00000  0.38207  Biso   1.000  O
  O12      1.0000 0.18034  0.00000  0.44458  Biso   1.000  O
  O13      1.0000 0.19637  0.32474  0.45015  Biso   1.000  O
  O14      1.0000 0.19637  0.67526  0.45015  Biso   1.000  O
  O15      1.0000 0.44636  0.17526  0.46318  Biso   1.000  O
  O16      1.0000 0.44636  0.82474  0.46318  Biso   1.000  O
  O17      1.0000 0.43034  0.50000  0.46873  Biso   1.000  O
  O18      1.0000 0.24999  0.50000  0.53127  Biso   1.000  O
  O19      1.0000 0.23397  0.17526  0.53682  Biso   1.000  O
  O20      1.0000 0.23397  0.82474  0.53682  Biso   1.000  O
  O21      1.0000 0.48393  0.32400  0.55021  Biso   1.000  O
  O22      1.0000 0.48356  0.67632  0.55055  Biso   1.000  O
  O23      1.0000 0.49980  0.00004  0.55768  Biso   1.000  O
  O24      1.0000 0.18367  0.99878  0.61729  Biso   1.000  O
  O25      1.0000 0.19485  0.32877  0.62260  Biso   1.000  O
  O26      1.0000 0.19881  0.67379  0.62232  Biso   1.000  O
  O27      1.0000 0.45010  0.18481  0.63870  Biso   1.000  O
  O28      1.0000 0.45327  0.82080  0.63948  Biso   1.000  O
  O29      1.0000 0.42723  0.50352  0.64406  Biso   1.000  O
  O30      1.0000 0.24941  0.50249  0.70686  Biso   1.000  O
  O31      1.0000 0.23022  0.20355  0.71308  Biso   1.000  O
  O32      1.0000 0.22489  0.80653  0.70885  Biso   1.000  O
  O33      1.0000 0.48530  0.32530  0.72553  Biso   1.000  O
  O34      1.0000 0.48028  0.67562  0.72710  Biso   1.000  O
  O35      1.0000 0.69637  0.32474  0.27682  Biso   1.000  O
  O36      1.0000 0.69637  0.67526  0.27682  Biso   1.000  O
  O37      1.0000 0.94636  0.17526  0.28985  Biso   1.000  O
  O38      1.0000 0.94636  0.82474  0.28985  Biso   1.000  O
  O39      1.0000 0.93034  0.50000  0.29540  Biso   1.000  O
  O40      1.0000 0.74999  0.50000  0.35792  Biso   1.000  O
  O41      1.0000 0.73397  0.17526  0.36348  Biso   1.000  O
  O42      1.0000 0.73397  0.82474  0.36348  Biso   1.000  O
  O43      1.0000 0.98397  0.32474  0.37652  Biso   1.000  O
  O44      1.0000 0.98397  0.67526  0.37652  Biso   1.000  O
  O45      1.0000 0.00000  0.00000  0.38207  Biso   1.000  O
  O46      1.0000 0.68034  0.00000  0.44458  Biso   1.000  O
  O47      1.0000 0.69637  0.32474  0.45015  Biso   1.000  O
  O48      1.0000 0.69637  0.67526  0.45015  Biso   1.000  O
  O49      1.0000 0.94636  0.17526  0.46318  Biso   1.000  O
  O50      1.0000 0.94636  0.82474  0.46318  Biso   1.000  O
  O51      1.0000 0.93034  0.50000  0.46873  Biso   1.000  O
  O52      1.0000 0.74999  0.50000  0.53127  Biso   1.000  O
  O53      1.0000 0.73397  0.17526  0.53682  Biso   1.000  O
  O54      1.0000 0.73397  0.82474  0.53682  Biso   1.000  O
  O55      1.0000 0.98294  0.32356  0.55023  Biso   1.000  O
  O56      1.0000 0.98294  0.67631  0.55031  Biso   1.000  O
  O57      1.0000 0.99964  0.99829  0.55660  Biso   1.000  O
  O58      1.0000 0.68093  0.00084  0.61854  Biso   1.000  O
  O59      1.0000 0.70269  0.32438  0.62190  Biso   1.000  O
  O60      1.0000 0.70245  0.67589  0.62139  Biso   1.000  O
  O61      1.0000 0.95169  0.17312  0.63840  Biso   1.000  O
  O62      1.0000 0.95201  0.82176  0.63887  Biso   1.000  O
  O63      1.0000 0.91634  0.49986  0.63855  Biso   1.000  O
  O64      1.0000 0.75132  0.49743  0.70619  Biso   1.000  O
  O65      1.0000 0.73605  0.18531  0.70643  Biso   1.000  O
  O66      1.0000 0.73144  0.80840  0.70623  Biso   1.000  O
  O67      1.0000 0.99154  0.34258  0.71959  Biso   1.000  O
  O68      1.0000 0.98833  0.65708  0.72128  Biso   1.000  O
  O69      1.0000 0.42604  0.34374  0.77259  Biso   1.000  O
  Ir1      1.0000 0.34016  0.32466  0.32667  Biso   1.000  Ir
  Ir2      1.0000 0.34016  0.67535  0.32667  Biso   1.000  Ir
  Ir3      1.0000 0.09016  0.17534  0.41333  Biso   1.000  Ir
  Ir4      1.0000 0.09016  0.82466  0.41333  Biso   1.000  Ir
  Ir5      1.0000 0.34016  0.32466  0.50000  Biso   1.000  Ir
  Ir6      1.0000 0.34016  0.67535  0.50000  Biso   1.000  Ir
  Ir7      1.0000 0.09088  0.17409  0.58651  Biso   1.000  Ir
  Ir8      1.0000 0.09168  0.82240  0.58690  Biso   1.000  Ir
  Ir9      1.0000 0.33362  0.32482  0.67423  Biso   1.000  Ir
  Ir10     1.0000 0.33841  0.68045  0.67584  Biso   1.000  Ir
  Ir11     1.0000 0.84017  0.32466  0.32667  Biso   1.000  Ir
  Ir12     1.0000 0.84017  0.67535  0.32667  Biso   1.000  Ir
  Ir13     1.0000 0.59016  0.17534  0.41333  Biso   1.000  Ir
  Ir14     1.0000 0.59016  0.82466  0.41333  Biso   1.000  Ir
  Ir15     1.0000 0.84017  0.32466  0.50000  Biso   1.000  Ir
  Ir16     1.0000 0.84017  0.67535  0.50000  Biso   1.000  Ir
  Ir17     1.0000 0.59240  0.17788  0.58738  Biso   1.000  Ir
  Ir18     1.0000 0.59265  0.82291  0.58749  Biso   1.000  Ir
  Ir19     1.0000 0.84985  0.31957  0.67712  Biso   1.000  Ir
  Ir20     1.0000 0.85043  0.67408  0.67732  Biso   1.000  Ir
  H1       1.0000 0.56179  0.74584  0.71988  Biso   1.000  H
  H2       1.0000 0.51361  0.34438  0.79266  Biso   1.000  H
