data_image0
_cell_length_a       6.3788
_cell_length_b       9.08
_cell_length_c       26.3501
_cell_angle_alpha    90
_cell_angle_beta     90
_cell_angle_gamma    90

_symmetry_space_group_name_H-M    "P 1"
_symmetry_int_tables_number       1

loop_
  _symmetry_equiv_pos_as_xyz
  'x, y, z'

loop_
  _atom_site_label
  _atom_site_occupancy
  _atom_site_fract_x
  _atom_site_fract_y
  _atom_site_fract_z
  _atom_site_thermal_displace_type
  _atom_site_B_iso_or_equiv
  _atom_site_type_symbol
  O1       1.0000 0.25000  0.05000  0.28463  Biso   1.000  O
  O2       1.0000 0.25000  0.25000  0.35355  Biso   1.000  O
  O3       1.0000 0.00000  0.00000  0.37077  Biso   1.000  O
  O4       1.0000 0.00000  0.30000  0.43969  Biso   1.000  O
  O5       1.0000 0.25000  0.05000  0.45691  Biso   1.000  O
  O6       1.0000 0.25000  0.25000  0.52583  Biso   1.000  O
  O7       1.0000 0.00000  0.00000  0.54307  Biso   1.000  O
  O8       1.0000 0.00000  0.30864  0.60911  Biso   1.000  O
  O9       1.0000 0.25000  0.05694  0.63154  Biso   1.000  O
  O10      1.0000 0.25000  0.25846  0.69137  Biso   1.000  O
  O11      1.0000 0.00000  0.02539  0.72302  Biso   1.000  O
  O12      1.0000 0.25000  0.55000  0.28463  Biso   1.000  O
  O13      1.0000 0.25000  0.75000  0.35355  Biso   1.000  O
  O14      1.0000 0.00000  0.50000  0.37077  Biso   1.000  O
  O15      1.0000 0.00000  0.80000  0.43969  Biso   1.000  O
  O16      1.0000 0.25000  0.55000  0.45691  Biso   1.000  O
  O17      1.0000 0.25000  0.75000  0.52583  Biso   1.000  O
  O18      1.0000 0.00000  0.50000  0.54307  Biso   1.000  O
  O19      1.0000 0.00000  0.80864  0.60911  Biso   1.000  O
  O20      1.0000 0.25000  0.55694  0.63154  Biso   1.000  O
  O21      1.0000 0.25000  0.75846  0.69137  Biso   1.000  O
  O22      1.0000 0.00000  0.52539  0.72302  Biso   1.000  O
  O23      1.0000 0.75000  0.05000  0.28463  Biso   1.000  O
  O24      1.0000 0.75000  0.25000  0.35355  Biso   1.000  O
  O25      1.0000 0.50000  0.00000  0.37077  Biso   1.000  O
  O26      1.0000 0.50000  0.30000  0.43969  Biso   1.000  O
  O27      1.0000 0.75000  0.05000  0.45691  Biso   1.000  O
  O28      1.0000 0.75000  0.25000  0.52583  Biso   1.000  O
  O29      1.0000 0.50000  0.00000  0.54307  Biso   1.000  O
  O30      1.0000 0.50000  0.30864  0.60911  Biso   1.000  O
  O31      1.0000 0.75000  0.05694  0.63154  Biso   1.000  O
  O32      1.0000 0.75000  0.25846  0.69137  Biso   1.000  O
  O33      1.0000 0.50000  0.02539  0.72302  Biso   1.000  O
  O34      1.0000 0.75000  0.55000  0.28463  Biso   1.000  O
  O35      1.0000 0.75000  0.75000  0.35355  Biso   1.000  O
  O36      1.0000 0.50000  0.50000  0.37077  Biso   1.000  O
  O37      1.0000 0.50000  0.80000  0.43969  Biso   1.000  O
  O38      1.0000 0.75000  0.55000  0.45691  Biso   1.000  O
  O39      1.0000 0.75000  0.75000  0.52583  Biso   1.000  O
  O40      1.0000 0.50000  0.50000  0.54307  Biso   1.000  O
  O41      1.0000 0.50000  0.80864  0.60911  Biso   1.000  O
  O42      1.0000 0.75000  0.55694  0.63154  Biso   1.000  O
  O43      1.0000 0.75000  0.75846  0.69137  Biso   1.000  O
  O44      1.0000 0.50000  0.52539  0.72302  Biso   1.000  O
  Ir1      1.0000 0.00000  0.15000  0.31909  Biso   1.000  Ir
  Ir2      1.0000 0.25000  0.40000  0.40523  Biso   1.000  Ir
  Ir3      1.0000 0.00000  0.15000  0.49137  Biso   1.000  Ir
  Ir4      1.0000 0.25000  0.40654  0.57751  Biso   1.000  Ir
  Ir5      1.0000 0.00000  0.15299  0.66534  Biso   1.000  Ir
  Ir6      1.0000 0.00000  0.65000  0.31909  Biso   1.000  Ir
  Ir7      1.0000 0.25000  0.90000  0.40523  Biso   1.000  Ir
  Ir8      1.0000 0.00000  0.65000  0.49137  Biso   1.000  Ir
  Ir9      1.0000 0.25000  0.90654  0.57751  Biso   1.000  Ir
  Ir10     1.0000 0.00000  0.65299  0.66534  Biso   1.000  Ir
  Ir11     1.0000 0.50000  0.15000  0.31909  Biso   1.000  Ir
  Ir12     1.0000 0.75000  0.40000  0.40523  Biso   1.000  Ir
  Ir13     1.0000 0.50000  0.15000  0.49137  Biso   1.000  Ir
  Ir14     1.0000 0.75000  0.40654  0.57751  Biso   1.000  Ir
  Ir15     1.0000 0.50000  0.15299  0.66534  Biso   1.000  Ir
  Ir16     1.0000 0.50000  0.65000  0.31909  Biso   1.000  Ir
  Ir17     1.0000 0.75000  0.90000  0.40523  Biso   1.000  Ir
  Ir18     1.0000 0.50000  0.65000  0.49137  Biso   1.000  Ir
  Ir19     1.0000 0.75000  0.90654  0.57751  Biso   1.000  Ir
  Ir20     1.0000 0.50000  0.65299  0.66534  Biso   1.000  Ir
  H1       1.0000 0.50000  0.92019  0.71435  Biso   1.000  H
  H2       1.0000 0.50000  0.42019  0.71435  Biso   1.000  H
  H3       1.0000 0.00000  0.92019  0.71435  Biso   1.000  H
  H4       1.0000 0.00000  0.42019  0.71435  Biso   1.000  H
