data_image0
_cell_length_a       6.3788
_cell_length_b       9.08
_cell_length_c       42.332
_cell_angle_alpha    90
_cell_angle_beta     90
_cell_angle_gamma    90

_symmetry_space_group_name_H-M    "P 1"
_symmetry_int_tables_number       1

loop_
  _symmetry_equiv_pos_as_xyz
  'x, y, z'

loop_
  _atom_site_label
  _atom_site_occupancy
  _atom_site_fract_x
  _atom_site_fract_y
  _atom_site_fract_z
  _atom_site_thermal_displace_type
  _atom_site_B_iso_or_equiv
  _atom_site_type_symbol
  Ir1      1.0000 0.25000  0.40000  0.18898  Biso   1.000  Ir
  O1       1.0000 0.00000  0.30000  0.21043  Biso   1.000  O
  O2       1.0000 0.25000  0.05000  0.22116  Biso   1.000  O
  Ir2      1.0000 0.00000  0.15000  0.24261  Biso   1.000  Ir
  O3       1.0000 0.25000  0.25000  0.26406  Biso   1.000  O
  O4       1.0000 0.00000  0.00000  0.27478  Biso   1.000  O
  Ir3      1.0000 0.25000  0.40000  0.29623  Biso   1.000  Ir
  O5       1.0000 0.00000  0.30000  0.31768  Biso   1.000  O
  O6       1.0000 0.25000  0.05000  0.32840  Biso   1.000  O
  Ir4      1.0000 0.00000  0.15000  0.34985  Biso   1.000  Ir
  O7       1.0000 0.25000  0.25000  0.37130  Biso   1.000  O
  O8       1.0000 0.00000  0.00000  0.38203  Biso   1.000  O
  Ir5      1.0000 0.25000  0.40000  0.40348  Biso   1.000  Ir
  O9       1.0000 0.00000  0.30000  0.42493  Biso   1.000  O
  O10      1.0000 0.25000  0.05000  0.43565  Biso   1.000  O
  Ir6      1.0000 0.00000  0.15000  0.45710  Biso   1.000  Ir
  O11      1.0000 0.25000  0.25000  0.47855  Biso   1.000  O
  O12      1.0000 0.00000  0.00000  0.48928  Biso   1.000  O
  Ir7      1.0000 0.25000  0.40000  0.51072  Biso   1.000  Ir
  O13      1.0000 0.00000  0.30000  0.53217  Biso   1.000  O
  O14      1.0000 0.25000  0.05000  0.54290  Biso   1.000  O
  Ir8      1.0000 0.00000  0.15000  0.56435  Biso   1.000  Ir
  O15      1.0000 0.25000  0.25000  0.58580  Biso   1.000  O
  O16      1.0000 0.00000  0.00000  0.59652  Biso   1.000  O
  Ir9      1.0000 0.25000  0.40000  0.61797  Biso   1.000  Ir
  O17      1.0000 0.00000  0.30000  0.63942  Biso   1.000  O
  O18      1.0000 0.25000  0.05000  0.65015  Biso   1.000  O
  Ir10     1.0000 0.00000  0.15000  0.67160  Biso   1.000  Ir
  O19      1.0000 0.25000  0.25000  0.69305  Biso   1.000  O
  O20      1.0000 0.00000  0.00000  0.70377  Biso   1.000  O
  Ir11     1.0000 0.25000  0.40000  0.72522  Biso   1.000  Ir
  O21      1.0000 0.00000  0.30000  0.74667  Biso   1.000  O
  O22      1.0000 0.25000  0.05000  0.75739  Biso   1.000  O
  Ir12     1.0000 0.00000  0.15000  0.77884  Biso   1.000  Ir
  O23      1.0000 0.25000  0.25000  0.80029  Biso   1.000  O
  O24      1.0000 0.00000  0.00000  0.81102  Biso   1.000  O
  Ir13     1.0000 0.25000  0.90000  0.18898  Biso   1.000  Ir
  O25      1.0000 0.00000  0.80000  0.21043  Biso   1.000  O
  O26      1.0000 0.25000  0.55000  0.22116  Biso   1.000  O
  Ir14     1.0000 0.00000  0.65000  0.24261  Biso   1.000  Ir
  O27      1.0000 0.25000  0.75000  0.26406  Biso   1.000  O
  O28      1.0000 0.00000  0.50000  0.27478  Biso   1.000  O
  Ir15     1.0000 0.25000  0.90000  0.29623  Biso   1.000  Ir
  O29      1.0000 0.00000  0.80000  0.31768  Biso   1.000  O
  O30      1.0000 0.25000  0.55000  0.32840  Biso   1.000  O
  Ir16     1.0000 0.00000  0.65000  0.34985  Biso   1.000  Ir
  O31      1.0000 0.25000  0.75000  0.37130  Biso   1.000  O
  O32      1.0000 0.00000  0.50000  0.38203  Biso   1.000  O
  Ir17     1.0000 0.25000  0.90000  0.40348  Biso   1.000  Ir
  O33      1.0000 0.00000  0.80000  0.42493  Biso   1.000  O
  O34      1.0000 0.25000  0.55000  0.43565  Biso   1.000  O
  Ir18     1.0000 0.00000  0.65000  0.45710  Biso   1.000  Ir
  O35      1.0000 0.25000  0.75000  0.47855  Biso   1.000  O
  O36      1.0000 0.00000  0.50000  0.48928  Biso   1.000  O
  Ir19     1.0000 0.25000  0.90000  0.51072  Biso   1.000  Ir
  O37      1.0000 0.00000  0.80000  0.53217  Biso   1.000  O
  O38      1.0000 0.25000  0.55000  0.54290  Biso   1.000  O
  Ir20     1.0000 0.00000  0.65000  0.56435  Biso   1.000  Ir
  O39      1.0000 0.25000  0.75000  0.58580  Biso   1.000  O
  O40      1.0000 0.00000  0.50000  0.59652  Biso   1.000  O
  Ir21     1.0000 0.25000  0.90000  0.61797  Biso   1.000  Ir
  O41      1.0000 0.00000  0.80000  0.63942  Biso   1.000  O
  O42      1.0000 0.25000  0.55000  0.65015  Biso   1.000  O
  Ir22     1.0000 0.00000  0.65000  0.67160  Biso   1.000  Ir
  O43      1.0000 0.25000  0.75000  0.69305  Biso   1.000  O
  O44      1.0000 0.00000  0.50000  0.70377  Biso   1.000  O
  Ir23     1.0000 0.25000  0.90000  0.72522  Biso   1.000  Ir
  O45      1.0000 0.00000  0.80000  0.74667  Biso   1.000  O
  O46      1.0000 0.25000  0.55000  0.75739  Biso   1.000  O
  Ir24     1.0000 0.00000  0.65000  0.77884  Biso   1.000  Ir
  O47      1.0000 0.25000  0.75000  0.80029  Biso   1.000  O
  O48      1.0000 0.00000  0.50000  0.81102  Biso   1.000  O
  Ir25     1.0000 0.75000  0.40000  0.18898  Biso   1.000  Ir
  O49      1.0000 0.50000  0.30000  0.21043  Biso   1.000  O
  O50      1.0000 0.75000  0.05000  0.22116  Biso   1.000  O
  Ir26     1.0000 0.50000  0.15000  0.24261  Biso   1.000  Ir
  O51      1.0000 0.75000  0.25000  0.26406  Biso   1.000  O
  O52      1.0000 0.50000  0.00000  0.27478  Biso   1.000  O
  Ir27     1.0000 0.75000  0.40000  0.29623  Biso   1.000  Ir
  O53      1.0000 0.50000  0.30000  0.31768  Biso   1.000  O
  O54      1.0000 0.75000  0.05000  0.32840  Biso   1.000  O
  Ir28     1.0000 0.50000  0.15000  0.34985  Biso   1.000  Ir
  O55      1.0000 0.75000  0.25000  0.37130  Biso   1.000  O
  O56      1.0000 0.50000  0.00000  0.38203  Biso   1.000  O
  Ir29     1.0000 0.75000  0.40000  0.40348  Biso   1.000  Ir
  O57      1.0000 0.50000  0.30000  0.42493  Biso   1.000  O
  O58      1.0000 0.75000  0.05000  0.43565  Biso   1.000  O
  Ir30     1.0000 0.50000  0.15000  0.45710  Biso   1.000  Ir
  O59      1.0000 0.75000  0.25000  0.47855  Biso   1.000  O
  O60      1.0000 0.50000  0.00000  0.48928  Biso   1.000  O
  Ir31     1.0000 0.75000  0.40000  0.51072  Biso   1.000  Ir
  O61      1.0000 0.50000  0.30000  0.53217  Biso   1.000  O
  O62      1.0000 0.75000  0.05000  0.54290  Biso   1.000  O
  Ir32     1.0000 0.50000  0.15000  0.56435  Biso   1.000  Ir
  O63      1.0000 0.75000  0.25000  0.58580  Biso   1.000  O
  O64      1.0000 0.50000  0.00000  0.59652  Biso   1.000  O
  Ir33     1.0000 0.75000  0.40000  0.61797  Biso   1.000  Ir
  O65      1.0000 0.50000  0.30000  0.63942  Biso   1.000  O
  O66      1.0000 0.75000  0.05000  0.65015  Biso   1.000  O
  Ir34     1.0000 0.50000  0.15000  0.67160  Biso   1.000  Ir
  O67      1.0000 0.75000  0.25000  0.69305  Biso   1.000  O
  O68      1.0000 0.50000  0.00000  0.70377  Biso   1.000  O
  Ir35     1.0000 0.75000  0.40000  0.72522  Biso   1.000  Ir
  O69      1.0000 0.50000  0.30000  0.74667  Biso   1.000  O
  O70      1.0000 0.75000  0.05000  0.75739  Biso   1.000  O
  Ir36     1.0000 0.50000  0.15000  0.77884  Biso   1.000  Ir
  O71      1.0000 0.75000  0.25000  0.80029  Biso   1.000  O
  O72      1.0000 0.50000  0.00000  0.81102  Biso   1.000  O
  Ir37     1.0000 0.75000  0.90000  0.18898  Biso   1.000  Ir
  O73      1.0000 0.50000  0.80000  0.21043  Biso   1.000  O
  O74      1.0000 0.75000  0.55000  0.22116  Biso   1.000  O
  Ir38     1.0000 0.50000  0.65000  0.24261  Biso   1.000  Ir
  O75      1.0000 0.75000  0.75000  0.26406  Biso   1.000  O
  O76      1.0000 0.50000  0.50000  0.27478  Biso   1.000  O
  Ir39     1.0000 0.75000  0.90000  0.29623  Biso   1.000  Ir
  O77      1.0000 0.50000  0.80000  0.31768  Biso   1.000  O
  O78      1.0000 0.75000  0.55000  0.32840  Biso   1.000  O
  Ir40     1.0000 0.50000  0.65000  0.34985  Biso   1.000  Ir
  O79      1.0000 0.75000  0.75000  0.37130  Biso   1.000  O
  O80      1.0000 0.50000  0.50000  0.38203  Biso   1.000  O
  Ir41     1.0000 0.75000  0.90000  0.40348  Biso   1.000  Ir
  O81      1.0000 0.50000  0.80000  0.42493  Biso   1.000  O
  O82      1.0000 0.75000  0.55000  0.43565  Biso   1.000  O
  Ir42     1.0000 0.50000  0.65000  0.45710  Biso   1.000  Ir
  O83      1.0000 0.75000  0.75000  0.47855  Biso   1.000  O
  O84      1.0000 0.50000  0.50000  0.48928  Biso   1.000  O
  Ir43     1.0000 0.75000  0.90000  0.51072  Biso   1.000  Ir
  O85      1.0000 0.50000  0.80000  0.53217  Biso   1.000  O
  O86      1.0000 0.75000  0.55000  0.54290  Biso   1.000  O
  Ir44     1.0000 0.50000  0.65000  0.56435  Biso   1.000  Ir
  O87      1.0000 0.75000  0.75000  0.58580  Biso   1.000  O
  O88      1.0000 0.50000  0.50000  0.59652  Biso   1.000  O
  Ir45     1.0000 0.75000  0.90000  0.61797  Biso   1.000  Ir
  O89      1.0000 0.50000  0.80000  0.63942  Biso   1.000  O
  O90      1.0000 0.75000  0.55000  0.65015  Biso   1.000  O
  Ir46     1.0000 0.50000  0.65000  0.67160  Biso   1.000  Ir
  O91      1.0000 0.75000  0.75000  0.69305  Biso   1.000  O
  O92      1.0000 0.50000  0.50000  0.70377  Biso   1.000  O
  Ir47     1.0000 0.75000  0.90000  0.72522  Biso   1.000  Ir
  O93      1.0000 0.50000  0.80000  0.74667  Biso   1.000  O
  O94      1.0000 0.75000  0.55000  0.75739  Biso   1.000  O
  Ir48     1.0000 0.50000  0.65000  0.77884  Biso   1.000  Ir
  O95      1.0000 0.75000  0.75000  0.80029  Biso   1.000  O
  O96      1.0000 0.50000  0.50000  0.81102  Biso   1.000  O
