data_image0
_cell_length_a       9.3927
_cell_length_b       9.3927
_cell_length_c       28.085
_cell_angle_alpha    90
_cell_angle_beta     90
_cell_angle_gamma    89.9999

_symmetry_space_group_name_H-M    "P 1"
_symmetry_int_tables_number       1

loop_
  _symmetry_equiv_pos_as_xyz
  'x, y, z'

loop_
  _atom_site_label
  _atom_site_occupancy
  _atom_site_fract_x
  _atom_site_fract_y
  _atom_site_fract_z
  _atom_site_thermal_displace_type
  _atom_site_B_iso_or_equiv
  _atom_site_type_symbol
  O1       1.0000 0.26602  0.05363  0.26705  Biso   1.000  O
  O2       1.0000 0.44637  0.23397  0.26705  Biso   1.000  O
  O3       1.0000 0.00000  0.00000  0.32149  Biso   1.000  O
  O4       1.0000 0.21239  0.28761  0.32149  Biso   1.000  O
  Ir1      1.0000 0.35619  0.14380  0.32151  Biso   1.000  Ir
  Ir2      1.0000 0.10619  0.39381  0.36789  Biso   1.000  Ir
  O5       1.0000 0.24999  0.03760  0.36791  Biso   1.000  O
  O6       1.0000 0.46239  0.25000  0.36791  Biso   1.000  O
  O7       1.0000 0.19637  0.30363  0.42236  Biso   1.000  O
  O8       1.0000 0.01602  0.48398  0.42236  Biso   1.000  O
  O9       1.0000 0.24999  0.03760  0.47679  Biso   1.000  O
  O10      1.0000 0.46239  0.25000  0.47679  Biso   1.000  O
  Ir3      1.0000 0.10619  0.39381  0.47681  Biso   1.000  Ir
  Ir4      1.0000 0.35619  0.14380  0.52319  Biso   1.000  Ir
  O11      1.0000 0.00000  0.00000  0.52322  Biso   1.000  O
  O12      1.0000 0.21239  0.28761  0.52322  Biso   1.000  O
  O13      1.0000 0.26602  0.05363  0.57765  Biso   1.000  O
  O14      1.0000 0.44637  0.23397  0.57765  Biso   1.000  O
  O15      1.0000 0.00000  0.00000  0.63210  Biso   1.000  O
  O16      1.0000 0.21239  0.28761  0.63210  Biso   1.000  O
  Ir5      1.0000 0.35619  0.14380  0.63212  Biso   1.000  Ir
  Ir6      1.0000 0.10619  0.39381  0.67849  Biso   1.000  Ir
  O17      1.0000 0.24999  0.03760  0.67852  Biso   1.000  O
  O18      1.0000 0.46239  0.25000  0.67852  Biso   1.000  O
  O19      1.0000 0.19637  0.30363  0.73295  Biso   1.000  O
  O20      1.0000 0.01602  0.48398  0.73295  Biso   1.000  O
  O21      1.0000 0.26602  0.55363  0.26705  Biso   1.000  O
  O22      1.0000 0.44637  0.73397  0.26705  Biso   1.000  O
  O23      1.0000 0.00000  0.50000  0.32149  Biso   1.000  O
  O24      1.0000 0.21239  0.78761  0.32149  Biso   1.000  O
  Ir7      1.0000 0.35619  0.64380  0.32151  Biso   1.000  Ir
  Ir8      1.0000 0.10620  0.89381  0.36789  Biso   1.000  Ir
  O25      1.0000 0.24999  0.53760  0.36791  Biso   1.000  O
  O26      1.0000 0.46239  0.75000  0.36791  Biso   1.000  O
  O27      1.0000 0.19637  0.80363  0.42236  Biso   1.000  O
  O28      1.0000 0.01602  0.98398  0.42236  Biso   1.000  O
  O29      1.0000 0.24999  0.53760  0.47679  Biso   1.000  O
  O30      1.0000 0.46239  0.75000  0.47679  Biso   1.000  O
  Ir9      1.0000 0.10620  0.89381  0.47681  Biso   1.000  Ir
  Ir10     1.0000 0.35619  0.64380  0.52319  Biso   1.000  Ir
  O31      1.0000 0.00000  0.50000  0.52322  Biso   1.000  O
  O32      1.0000 0.21239  0.78761  0.52322  Biso   1.000  O
  O33      1.0000 0.26602  0.55363  0.57765  Biso   1.000  O
  O34      1.0000 0.44637  0.73397  0.57765  Biso   1.000  O
  O35      1.0000 0.00000  0.50000  0.63210  Biso   1.000  O
  O36      1.0000 0.21239  0.78761  0.63210  Biso   1.000  O
  Ir11     1.0000 0.35619  0.64380  0.63212  Biso   1.000  Ir
  Ir12     1.0000 0.10620  0.89381  0.67849  Biso   1.000  Ir
  O37      1.0000 0.24999  0.53760  0.67852  Biso   1.000  O
  O38      1.0000 0.46239  0.75000  0.67852  Biso   1.000  O
  O39      1.0000 0.19637  0.80363  0.73295  Biso   1.000  O
  O40      1.0000 0.01602  0.98398  0.73295  Biso   1.000  O
  O41      1.0000 0.76602  0.05363  0.26705  Biso   1.000  O
  O42      1.0000 0.94637  0.23397  0.26705  Biso   1.000  O
  O43      1.0000 0.50000  0.00000  0.32149  Biso   1.000  O
  O44      1.0000 0.71239  0.28761  0.32149  Biso   1.000  O
  Ir13     1.0000 0.85619  0.14380  0.32151  Biso   1.000  Ir
  Ir14     1.0000 0.60619  0.39381  0.36789  Biso   1.000  Ir
  O45      1.0000 0.75000  0.03760  0.36791  Biso   1.000  O
  O46      1.0000 0.96239  0.25000  0.36791  Biso   1.000  O
  O47      1.0000 0.69637  0.30363  0.42236  Biso   1.000  O
  O48      1.0000 0.51602  0.48398  0.42236  Biso   1.000  O
  O49      1.0000 0.75000  0.03760  0.47679  Biso   1.000  O
  O50      1.0000 0.96239  0.25000  0.47679  Biso   1.000  O
  Ir15     1.0000 0.60619  0.39381  0.47681  Biso   1.000  Ir
  Ir16     1.0000 0.85619  0.14380  0.52319  Biso   1.000  Ir
  O51      1.0000 0.50000  0.00000  0.52322  Biso   1.000  O
  O52      1.0000 0.71239  0.28761  0.52322  Biso   1.000  O
  O53      1.0000 0.76602  0.05363  0.57765  Biso   1.000  O
  O54      1.0000 0.94637  0.23397  0.57765  Biso   1.000  O
  O55      1.0000 0.50000  0.00000  0.63210  Biso   1.000  O
  O56      1.0000 0.71239  0.28761  0.63210  Biso   1.000  O
  Ir17     1.0000 0.85619  0.14380  0.63212  Biso   1.000  Ir
  Ir18     1.0000 0.60619  0.39381  0.67849  Biso   1.000  Ir
  O57      1.0000 0.75000  0.03760  0.67852  Biso   1.000  O
  O58      1.0000 0.96239  0.25000  0.67852  Biso   1.000  O
  O59      1.0000 0.69637  0.30363  0.73295  Biso   1.000  O
  O60      1.0000 0.51602  0.48398  0.73295  Biso   1.000  O
  O61      1.0000 0.76602  0.55363  0.26705  Biso   1.000  O
  O62      1.0000 0.94637  0.73397  0.26705  Biso   1.000  O
  O63      1.0000 0.50000  0.50000  0.32149  Biso   1.000  O
  O64      1.0000 0.71239  0.78761  0.32149  Biso   1.000  O
  Ir19     1.0000 0.85619  0.64380  0.32151  Biso   1.000  Ir
  Ir20     1.0000 0.60620  0.89381  0.36789  Biso   1.000  Ir
  O65      1.0000 0.75000  0.53760  0.36791  Biso   1.000  O
  O66      1.0000 0.96239  0.75000  0.36791  Biso   1.000  O
  O67      1.0000 0.69637  0.80363  0.42236  Biso   1.000  O
  O68      1.0000 0.51602  0.98398  0.42236  Biso   1.000  O
  O69      1.0000 0.75000  0.53760  0.47679  Biso   1.000  O
  O70      1.0000 0.96239  0.75000  0.47679  Biso   1.000  O
  Ir21     1.0000 0.60620  0.89381  0.47681  Biso   1.000  Ir
  Ir22     1.0000 0.85619  0.64380  0.52319  Biso   1.000  Ir
  O71      1.0000 0.50000  0.50000  0.52322  Biso   1.000  O
  O72      1.0000 0.71239  0.78761  0.52322  Biso   1.000  O
  O73      1.0000 0.76602  0.55363  0.57765  Biso   1.000  O
  O74      1.0000 0.94637  0.73397  0.57765  Biso   1.000  O
  O75      1.0000 0.50000  0.50000  0.63210  Biso   1.000  O
  O76      1.0000 0.71239  0.78761  0.63210  Biso   1.000  O
  Ir23     1.0000 0.85619  0.64380  0.63212  Biso   1.000  Ir
  Ir24     1.0000 0.60620  0.89381  0.67849  Biso   1.000  Ir
  O77      1.0000 0.75000  0.53760  0.67852  Biso   1.000  O
  O78      1.0000 0.96239  0.75000  0.67852  Biso   1.000  O
  O79      1.0000 0.69637  0.80363  0.73295  Biso   1.000  O
  O80      1.0000 0.51602  0.98398  0.73295  Biso   1.000  O
