data_image0
_cell_length_a       6.64164
_cell_length_b       8.72335
_cell_length_c       38.7448
_cell_angle_alpha    90
_cell_angle_beta     90
_cell_angle_gamma    90

_symmetry_space_group_name_H-M    "P 1"
_symmetry_int_tables_number       1

loop_
  _symmetry_equiv_pos_as_xyz
  'x, y, z'

loop_
  _atom_site_label
  _atom_site_occupancy
  _atom_site_fract_x
  _atom_site_fract_y
  _atom_site_fract_z
  _atom_site_thermal_displace_type
  _atom_site_B_iso_or_equiv
  _atom_site_type_symbol
  O1       1.0000 0.00000  0.32474  0.19357  Biso   1.000  O
  O2       1.0000 0.00000  0.67526  0.19357  Biso   1.000  O
  O3       1.0000 0.50000  0.32474  0.20647  Biso   1.000  O
  O4       1.0000 0.50000  0.67526  0.20647  Biso   1.000  O
  O5       1.0000 0.50000  0.00000  0.21195  Biso   1.000  O
  O6       1.0000 0.21239  0.17526  0.24287  Biso   1.000  O
  O7       1.0000 0.78761  0.17526  0.24287  Biso   1.000  O
  Ir1      1.0000 0.50000  0.17534  0.24287  Biso   1.000  Ir
  Ir2      1.0000 0.00000  0.32465  0.24287  Biso   1.000  Ir
  O8       1.0000 0.18035  0.50000  0.24287  Biso   1.000  O
  O9       1.0000 0.81965  0.50000  0.24287  Biso   1.000  O
  Ir3      1.0000 0.00000  0.67534  0.24287  Biso   1.000  Ir
  Ir4      1.0000 0.50000  0.82466  0.24287  Biso   1.000  Ir
  O10      1.0000 0.21239  0.82474  0.24287  Biso   1.000  O
  O11      1.0000 0.78761  0.82474  0.24287  Biso   1.000  O
  O12      1.0000 0.50000  0.00000  0.27378  Biso   1.000  O
  O13      1.0000 0.50000  0.32474  0.27928  Biso   1.000  O
  O14      1.0000 0.50000  0.67526  0.27928  Biso   1.000  O
  O15      1.0000 0.00000  0.32474  0.29217  Biso   1.000  O
  O16      1.0000 0.00000  0.67526  0.29217  Biso   1.000  O
  O17      1.0000 0.00000  0.00000  0.29767  Biso   1.000  O
  O18      1.0000 0.28761  0.17526  0.32858  Biso   1.000  O
  Ir5      1.0000 0.50000  0.32465  0.32858  Biso   1.000  Ir
  O19      1.0000 0.31965  0.50000  0.32858  Biso   1.000  O
  Ir6      1.0000 0.50000  0.67534  0.32858  Biso   1.000  Ir
  O20      1.0000 0.71239  0.17526  0.32858  Biso   1.000  O
  Ir7      1.0000 0.00000  0.17534  0.32858  Biso   1.000  Ir
  O21      1.0000 0.68035  0.50000  0.32858  Biso   1.000  O
  O22      1.0000 0.28761  0.82474  0.32858  Biso   1.000  O
  Ir8      1.0000 0.00000  0.82466  0.32858  Biso   1.000  Ir
  O23      1.0000 0.71239  0.82474  0.32858  Biso   1.000  O
  O24      1.0000 0.00000  0.00000  0.35950  Biso   1.000  O
  O25      1.0000 0.00000  0.32474  0.36498  Biso   1.000  O
  O26      1.0000 0.00000  0.67526  0.36498  Biso   1.000  O
  O27      1.0000 0.50000  0.32474  0.37789  Biso   1.000  O
  O28      1.0000 0.50000  0.67526  0.37789  Biso   1.000  O
  O29      1.0000 0.50000  0.00000  0.38337  Biso   1.000  O
  O30      1.0000 0.21239  0.17526  0.41430  Biso   1.000  O
  O31      1.0000 0.78761  0.17526  0.41430  Biso   1.000  O
  Ir9      1.0000 0.50000  0.17534  0.41430  Biso   1.000  Ir
  Ir10     1.0000 0.00000  0.32465  0.41430  Biso   1.000  Ir
  O32      1.0000 0.18035  0.50000  0.41430  Biso   1.000  O
  O33      1.0000 0.81965  0.50000  0.41430  Biso   1.000  O
  Ir11     1.0000 0.00000  0.67534  0.41430  Biso   1.000  Ir
  Ir12     1.0000 0.50000  0.82466  0.41430  Biso   1.000  Ir
  O34      1.0000 0.21239  0.82474  0.41430  Biso   1.000  O
  O35      1.0000 0.78761  0.82474  0.41430  Biso   1.000  O
  O36      1.0000 0.50000  0.00000  0.44520  Biso   1.000  O
  O37      1.0000 0.50000  0.32474  0.45070  Biso   1.000  O
  O38      1.0000 0.50000  0.67526  0.45070  Biso   1.000  O
  O39      1.0000 0.00000  0.32474  0.46359  Biso   1.000  O
  O40      1.0000 0.00000  0.67526  0.46359  Biso   1.000  O
  O41      1.0000 0.00000  0.00000  0.46909  Biso   1.000  O
  O42      1.0000 0.28761  0.17526  0.50000  Biso   1.000  O
  Ir13     1.0000 0.50000  0.32465  0.50000  Biso   1.000  Ir
  O43      1.0000 0.31965  0.50000  0.50000  Biso   1.000  O
  Ir14     1.0000 0.50000  0.67534  0.50000  Biso   1.000  Ir
  O44      1.0000 0.28761  0.82474  0.50000  Biso   1.000  O
  O45      1.0000 0.71239  0.17526  0.50000  Biso   1.000  O
  Ir15     1.0000 0.00000  0.17534  0.50000  Biso   1.000  Ir
  O46      1.0000 0.68035  0.50000  0.50000  Biso   1.000  O
  Ir16     1.0000 0.00000  0.82466  0.50000  Biso   1.000  Ir
  O47      1.0000 0.71239  0.82474  0.50000  Biso   1.000  O
  O48      1.0000 0.00000  0.00000  0.53092  Biso   1.000  O
  O49      1.0000 0.00000  0.32474  0.53641  Biso   1.000  O
  O50      1.0000 0.00000  0.67526  0.53641  Biso   1.000  O
  O51      1.0000 0.50000  0.32474  0.54930  Biso   1.000  O
  O52      1.0000 0.50000  0.67526  0.54930  Biso   1.000  O
  O53      1.0000 0.50000  0.00000  0.55480  Biso   1.000  O
  O54      1.0000 0.21239  0.17526  0.58570  Biso   1.000  O
  O55      1.0000 0.78761  0.17526  0.58570  Biso   1.000  O
  Ir17     1.0000 0.50000  0.17534  0.58570  Biso   1.000  Ir
  Ir18     1.0000 0.00000  0.32465  0.58570  Biso   1.000  Ir
  O56      1.0000 0.18035  0.50000  0.58570  Biso   1.000  O
  O57      1.0000 0.81965  0.50000  0.58570  Biso   1.000  O
  Ir19     1.0000 0.00000  0.67534  0.58570  Biso   1.000  Ir
  Ir20     1.0000 0.50000  0.82466  0.58570  Biso   1.000  Ir
  O58      1.0000 0.21239  0.82474  0.58570  Biso   1.000  O
  O59      1.0000 0.78761  0.82474  0.58570  Biso   1.000  O
  O60      1.0000 0.50000  0.00000  0.61663  Biso   1.000  O
  O61      1.0000 0.50000  0.32474  0.62213  Biso   1.000  O
  O62      1.0000 0.50000  0.67526  0.62213  Biso   1.000  O
  O63      1.0000 0.00000  0.32474  0.63502  Biso   1.000  O
  O64      1.0000 0.00000  0.67526  0.63502  Biso   1.000  O
  O65      1.0000 0.00000  0.00000  0.64050  Biso   1.000  O
  O66      1.0000 0.28761  0.17526  0.67142  Biso   1.000  O
  O67      1.0000 0.71239  0.17526  0.67142  Biso   1.000  O
  Ir21     1.0000 0.00000  0.17534  0.67142  Biso   1.000  Ir
  Ir22     1.0000 0.50000  0.32465  0.67142  Biso   1.000  Ir
  O68      1.0000 0.31965  0.50000  0.67142  Biso   1.000  O
  O69      1.0000 0.68035  0.50000  0.67142  Biso   1.000  O
  Ir23     1.0000 0.50000  0.67534  0.67142  Biso   1.000  Ir
  Ir24     1.0000 0.00000  0.82466  0.67142  Biso   1.000  Ir
  O70      1.0000 0.28761  0.82474  0.67142  Biso   1.000  O
  O71      1.0000 0.71239  0.82474  0.67142  Biso   1.000  O
  O72      1.0000 0.00000  0.00000  0.70233  Biso   1.000  O
  O73      1.0000 0.00000  0.32474  0.70783  Biso   1.000  O
  O74      1.0000 0.00000  0.67526  0.70783  Biso   1.000  O
  O75      1.0000 0.50000  0.32474  0.72072  Biso   1.000  O
  O76      1.0000 0.50000  0.67526  0.72072  Biso   1.000  O
  O77      1.0000 0.50000  0.00000  0.72622  Biso   1.000  O
  O78      1.0000 0.21239  0.17526  0.75713  Biso   1.000  O
  O79      1.0000 0.78761  0.17526  0.75713  Biso   1.000  O
  Ir25     1.0000 0.50000  0.17534  0.75713  Biso   1.000  Ir
  Ir26     1.0000 0.00000  0.32465  0.75713  Biso   1.000  Ir
  O80      1.0000 0.18035  0.50000  0.75713  Biso   1.000  O
  O81      1.0000 0.81965  0.50000  0.75713  Biso   1.000  O
  Ir27     1.0000 0.00000  0.67534  0.75713  Biso   1.000  Ir
  Ir28     1.0000 0.50000  0.82466  0.75713  Biso   1.000  Ir
  O82      1.0000 0.21239  0.82474  0.75713  Biso   1.000  O
  O83      1.0000 0.78761  0.82474  0.75713  Biso   1.000  O
  O84      1.0000 0.50000  0.00000  0.78805  Biso   1.000  O
  O85      1.0000 0.50000  0.32474  0.79353  Biso   1.000  O
  O86      1.0000 0.50000  0.67526  0.79353  Biso   1.000  O
  O87      1.0000 0.00000  0.32474  0.80643  Biso   1.000  O
  O88      1.0000 0.00000  0.67526  0.80643  Biso   1.000  O
  H1       1.0000 0.00000  0.41645  0.82192  Biso   1.000  H
  H2       1.0000 0.00000  0.76697  0.81933  Biso   1.000  H
  H3       1.0000 0.00000  0.24450  0.17808  Biso   1.000  H
  H4       1.0000 0.00000  0.59502  0.17808  Biso   1.000  H
