data_image0
_cell_length_a       3.1894
_cell_length_b       4.54
_cell_length_c       49.5036
_cell_angle_alpha    90
_cell_angle_beta     90
_cell_angle_gamma    90

_symmetry_space_group_name_H-M    "P 1"
_symmetry_int_tables_number       1

loop_
  _symmetry_equiv_pos_as_xyz
  'x, y, z'

loop_
  _atom_site_label
  _atom_site_occupancy
  _atom_site_fract_x
  _atom_site_fract_y
  _atom_site_fract_z
  _atom_site_thermal_displace_type
  _atom_site_B_iso_or_equiv
  _atom_site_type_symbol
  O1       1.0000 0.00000  0.60000  0.15150  Biso   1.000  O
  O2       1.0000 0.50000  0.10000  0.16067  Biso   1.000  O
  Ir1      1.0000 0.00000  0.30000  0.17902  Biso   1.000  Ir
  O3       1.0000 0.50000  0.50000  0.19736  Biso   1.000  O
  O4       1.0000 0.00000  0.00000  0.20653  Biso   1.000  O
  Ir2      1.0000 0.50000  0.80000  0.22487  Biso   1.000  Ir
  O5       1.0000 0.00000  0.60000  0.24321  Biso   1.000  O
  O6       1.0000 0.50000  0.10000  0.25238  Biso   1.000  O
  Ir3      1.0000 0.00000  0.30000  0.27073  Biso   1.000  Ir
  O7       1.0000 0.50000  0.50000  0.28907  Biso   1.000  O
  O8       1.0000 0.00000  0.00000  0.29824  Biso   1.000  O
  Ir4      1.0000 0.50000  0.80000  0.31658  Biso   1.000  Ir
  O9       1.0000 0.00000  0.60000  0.33492  Biso   1.000  O
  O10      1.0000 0.50000  0.10000  0.34409  Biso   1.000  O
  Ir5      1.0000 0.00000  0.30000  0.36243  Biso   1.000  Ir
  O11      1.0000 0.50000  0.50000  0.38077  Biso   1.000  O
  O12      1.0000 0.00000  0.00000  0.38994  Biso   1.000  O
  Ir6      1.0000 0.50000  0.80000  0.40829  Biso   1.000  Ir
  O13      1.0000 0.00000  0.60000  0.42664  Biso   1.000  O
  O14      1.0000 0.50000  0.10000  0.43581  Biso   1.000  O
  Ir7      1.0000 0.00000  0.30000  0.45415  Biso   1.000  Ir
  O15      1.0000 0.50000  0.50000  0.47249  Biso   1.000  O
  O16      1.0000 0.00000  0.00000  0.48166  Biso   1.000  O
  Ir8      1.0000 0.50000  0.80000  0.50000  Biso   1.000  Ir
  O17      1.0000 0.00000  0.60000  0.51834  Biso   1.000  O
  O18      1.0000 0.50000  0.10000  0.52751  Biso   1.000  O
  Ir9      1.0000 0.00000  0.30000  0.54585  Biso   1.000  Ir
  O19      1.0000 0.50000  0.50000  0.56419  Biso   1.000  O
  O20      1.0000 0.00000  0.00000  0.57337  Biso   1.000  O
  Ir10     1.0000 0.50000  0.80000  0.59171  Biso   1.000  Ir
  O21      1.0000 0.00000  0.60000  0.61006  Biso   1.000  O
  O22      1.0000 0.50000  0.10000  0.61923  Biso   1.000  O
  Ir11     1.0000 0.00000  0.30000  0.63757  Biso   1.000  Ir
  O23      1.0000 0.50000  0.50000  0.65591  Biso   1.000  O
  O24      1.0000 0.00000  0.00000  0.66508  Biso   1.000  O
  Ir12     1.0000 0.50000  0.80000  0.68342  Biso   1.000  Ir
  O25      1.0000 0.00000  0.60000  0.70176  Biso   1.000  O
  O26      1.0000 0.50000  0.10000  0.71093  Biso   1.000  O
  Ir13     1.0000 0.00000  0.30000  0.72928  Biso   1.000  Ir
  O27      1.0000 0.50000  0.50000  0.74762  Biso   1.000  O
  O28      1.0000 0.00000  0.00000  0.75679  Biso   1.000  O
  Ir14     1.0000 0.50000  0.80000  0.77513  Biso   1.000  Ir
  O29      1.0000 0.00000  0.60000  0.79347  Biso   1.000  O
  O30      1.0000 0.50000  0.10000  0.80264  Biso   1.000  O
  Ir15     1.0000 0.00000  0.30000  0.82098  Biso   1.000  Ir
  O31      1.0000 0.50000  0.50000  0.83933  Biso   1.000  O
  O32      1.0000 0.00000  0.00000  0.84850  Biso   1.000  O
