data_image0
_cell_length_a       9.3927
_cell_length_b       8.72335
_cell_length_c       27.0937
_cell_angle_alpha    90
_cell_angle_beta     90
_cell_angle_gamma    90

_symmetry_space_group_name_H-M    "P 1"
_symmetry_int_tables_number       1

loop_
  _symmetry_equiv_pos_as_xyz
  'x, y, z'

loop_
  _atom_site_label
  _atom_site_occupancy
  _atom_site_fract_x
  _atom_site_fract_y
  _atom_site_fract_z
  _atom_site_thermal_displace_type
  _atom_site_B_iso_or_equiv
  _atom_site_type_symbol
  O1       1.0000 0.19637  0.32474  0.27682  Biso   1.000  O
  O2       1.0000 0.19637  0.67526  0.27682  Biso   1.000  O
  O3       1.0000 0.44636  0.17526  0.28985  Biso   1.000  O
  O4       1.0000 0.44636  0.82474  0.28985  Biso   1.000  O
  O5       1.0000 0.43034  0.50000  0.29540  Biso   1.000  O
  O6       1.0000 0.24999  0.50000  0.35792  Biso   1.000  O
  O7       1.0000 0.23397  0.17526  0.36348  Biso   1.000  O
  O8       1.0000 0.23397  0.82474  0.36348  Biso   1.000  O
  O9       1.0000 0.48397  0.32474  0.37652  Biso   1.000  O
  O10      1.0000 0.48397  0.67526  0.37652  Biso   1.000  O
  O11      1.0000 0.50000  0.00000  0.38207  Biso   1.000  O
  O12      1.0000 0.18034  0.00000  0.44458  Biso   1.000  O
  O13      1.0000 0.19637  0.32474  0.45015  Biso   1.000  O
  O14      1.0000 0.19637  0.67526  0.45015  Biso   1.000  O
  O15      1.0000 0.44636  0.17526  0.46318  Biso   1.000  O
  O16      1.0000 0.44636  0.82474  0.46318  Biso   1.000  O
  O17      1.0000 0.43034  0.50000  0.46873  Biso   1.000  O
  O18      1.0000 0.24999  0.50000  0.53127  Biso   1.000  O
  O19      1.0000 0.23397  0.17526  0.53682  Biso   1.000  O
  O20      1.0000 0.23397  0.82474  0.53682  Biso   1.000  O
  O21      1.0000 0.48323  0.32410  0.55048  Biso   1.000  O
  O22      1.0000 0.48281  0.67549  0.55062  Biso   1.000  O
  O23      1.0000 0.50007  0.99913  0.55722  Biso   1.000  O
  O24      1.0000 0.18221  0.99993  0.61782  Biso   1.000  O
  O25      1.0000 0.19985  0.32437  0.62300  Biso   1.000  O
  O26      1.0000 0.19957  0.67362  0.62199  Biso   1.000  O
  O27      1.0000 0.45245  0.18108  0.63904  Biso   1.000  O
  O28      1.0000 0.45466  0.81888  0.63974  Biso   1.000  O
  O29      1.0000 0.42723  0.50118  0.64317  Biso   1.000  O
  O30      1.0000 0.24851  0.50033  0.70566  Biso   1.000  O
  O31      1.0000 0.23395  0.19651  0.71194  Biso   1.000  O
  O32      1.0000 0.22896  0.80716  0.70950  Biso   1.000  O
  O33      1.0000 0.48735  0.33344  0.72490  Biso   1.000  O
  O34      1.0000 0.47895  0.65912  0.72692  Biso   1.000  O
  O35      1.0000 0.69637  0.32474  0.27682  Biso   1.000  O
  O36      1.0000 0.69637  0.67526  0.27682  Biso   1.000  O
  O37      1.0000 0.94636  0.17526  0.28985  Biso   1.000  O
  O38      1.0000 0.94636  0.82474  0.28985  Biso   1.000  O
  O39      1.0000 0.93034  0.50000  0.29540  Biso   1.000  O
  O40      1.0000 0.74999  0.50000  0.35792  Biso   1.000  O
  O41      1.0000 0.73397  0.17526  0.36348  Biso   1.000  O
  O42      1.0000 0.73397  0.82474  0.36348  Biso   1.000  O
  O43      1.0000 0.98397  0.32474  0.37652  Biso   1.000  O
  O44      1.0000 0.98397  0.67526  0.37652  Biso   1.000  O
  O45      1.0000 0.00000  0.00000  0.38207  Biso   1.000  O
  O46      1.0000 0.68034  0.00000  0.44458  Biso   1.000  O
  O47      1.0000 0.69637  0.32474  0.45015  Biso   1.000  O
  O48      1.0000 0.69637  0.67526  0.45015  Biso   1.000  O
  O49      1.0000 0.94636  0.17526  0.46318  Biso   1.000  O
  O50      1.0000 0.94636  0.82474  0.46318  Biso   1.000  O
  O51      1.0000 0.93034  0.50000  0.46873  Biso   1.000  O
  O52      1.0000 0.74999  0.50000  0.53127  Biso   1.000  O
  O53      1.0000 0.73397  0.17526  0.53682  Biso   1.000  O
  O54      1.0000 0.73397  0.82474  0.53682  Biso   1.000  O
  O55      1.0000 0.98318  0.32416  0.55048  Biso   1.000  O
  O56      1.0000 0.98295  0.67581  0.55043  Biso   1.000  O
  O57      1.0000 0.99918  0.99996  0.55701  Biso   1.000  O
  O58      1.0000 0.68283  0.99988  0.61798  Biso   1.000  O
  O59      1.0000 0.69874  0.32684  0.62302  Biso   1.000  O
  O60      1.0000 0.70113  0.67131  0.62142  Biso   1.000  O
  O61      1.0000 0.95116  0.17873  0.63899  Biso   1.000  O
  O62      1.0000 0.95298  0.81952  0.63942  Biso   1.000  O
  O63      1.0000 0.92667  0.49974  0.64367  Biso   1.000  O
  O64      1.0000 0.75233  0.49768  0.70748  Biso   1.000  O
  O65      1.0000 0.72896  0.19092  0.70970  Biso   1.000  O
  O66      1.0000 0.72291  0.80200  0.70762  Biso   1.000  O
  O67      1.0000 0.98221  0.32677  0.72570  Biso   1.000  O
  O68      1.0000 0.97936  0.67453  0.72670  Biso   1.000  O
  Ir1      1.0000 0.34016  0.32466  0.32667  Biso   1.000  Ir
  Ir2      1.0000 0.34016  0.67535  0.32667  Biso   1.000  Ir
  Ir3      1.0000 0.09016  0.17534  0.41333  Biso   1.000  Ir
  Ir4      1.0000 0.09016  0.82466  0.41333  Biso   1.000  Ir
  Ir5      1.0000 0.34016  0.32466  0.50000  Biso   1.000  Ir
  Ir6      1.0000 0.34016  0.67535  0.50000  Biso   1.000  Ir
  Ir7      1.0000 0.09146  0.17657  0.58688  Biso   1.000  Ir
  Ir8      1.0000 0.09140  0.82390  0.58682  Biso   1.000  Ir
  Ir9      1.0000 0.34058  0.32315  0.67508  Biso   1.000  Ir
  Ir10     1.0000 0.33795  0.67777  0.67460  Biso   1.000  Ir
  Ir11     1.0000 0.84017  0.32466  0.32667  Biso   1.000  Ir
  Ir12     1.0000 0.84017  0.67535  0.32667  Biso   1.000  Ir
  Ir13     1.0000 0.59016  0.17534  0.41333  Biso   1.000  Ir
  Ir14     1.0000 0.59016  0.82466  0.41333  Biso   1.000  Ir
  Ir15     1.0000 0.84017  0.32466  0.50000  Biso   1.000  Ir
  Ir16     1.0000 0.84017  0.67535  0.50000  Biso   1.000  Ir
  Ir17     1.0000 0.59195  0.17625  0.58702  Biso   1.000  Ir
  Ir18     1.0000 0.59258  0.82274  0.58722  Biso   1.000  Ir
  Ir19     1.0000 0.83777  0.31840  0.67591  Biso   1.000  Ir
  Ir20     1.0000 0.84061  0.67537  0.67514  Biso   1.000  Ir
  H1       1.0000 0.06157  0.25140  0.72117  Biso   1.000  H
  H2       1.0000 0.05861  0.74959  0.72136  Biso   1.000  H
  H3       1.0000 0.55803  0.73487  0.72357  Biso   1.000  H
  H4       1.0000 0.50332  0.44292  0.73370  Biso   1.000  H
