data_image0
_cell_length_a       7.0938
_cell_length_b       7.0938
_cell_length_c       27.8371
_cell_angle_alpha    90
_cell_angle_beta     90
_cell_angle_gamma    92.9993

_symmetry_space_group_name_H-M    "P 1"
_symmetry_int_tables_number       1

loop_
  _symmetry_equiv_pos_as_xyz
  'x, y, z'

loop_
  _atom_site_label
  _atom_site_occupancy
  _atom_site_fract_x
  _atom_site_fract_y
  _atom_site_fract_z
  _atom_site_thermal_displace_type
  _atom_site_B_iso_or_equiv
  _atom_site_type_symbol
  Ir1      1.0000 0.49270  0.37698  0.28904  Biso   1.000  Ir
  Ir2      1.0000 0.99271  0.87698  0.28904  Biso   1.000  Ir
  Ir3      1.0000 0.01758  0.35212  0.41612  Biso   1.000  Ir
  Ir4      1.0000 0.51758  0.85212  0.41612  Biso   1.000  Ir
  Ir5      1.0000 0.04016  0.82823  0.54338  Biso   1.000  Ir
  Ir6      1.0000 0.54016  0.32824  0.54338  Biso   1.000  Ir
  Ir7      1.0000 0.06463  0.29932  0.67346  Biso   1.000  Ir
  Ir8      1.0000 0.56461  0.79933  0.67345  Biso   1.000  Ir
  Ir9      1.0000 0.49271  0.87698  0.28904  Biso   1.000  Ir
  Ir10     1.0000 0.99270  0.37698  0.28904  Biso   1.000  Ir
  Ir11     1.0000 0.01758  0.85212  0.41612  Biso   1.000  Ir
  Ir12     1.0000 0.51758  0.35212  0.41612  Biso   1.000  Ir
  Ir13     1.0000 0.04085  0.32911  0.54342  Biso   1.000  Ir
  Ir14     1.0000 0.54085  0.82912  0.54342  Biso   1.000  Ir
  Ir15     1.0000 0.07007  0.80513  0.67341  Biso   1.000  Ir
  Ir16     1.0000 0.57007  0.30513  0.67341  Biso   1.000  Ir
  O1       1.0000 0.42799  0.28739  0.35258  Biso   1.000  O
  O2       1.0000 0.92798  0.78739  0.35258  Biso   1.000  O
  O3       1.0000 0.45284  0.76253  0.47966  Biso   1.000  O
  O4       1.0000 0.95285  0.26253  0.47966  Biso   1.000  O
  O5       1.0000 0.48951  0.25080  0.60824  Biso   1.000  O
  O6       1.0000 0.98949  0.75080  0.60824  Biso   1.000  O
  O7       1.0000 0.00976  0.20334  0.73056  Biso   1.000  O
  O8       1.0000 0.50974  0.70335  0.73056  Biso   1.000  O
  O9       1.0000 0.23888  0.30367  0.26943  Biso   1.000  O
  O10      1.0000 0.73887  0.80367  0.26943  Biso   1.000  O
  O11      1.0000 0.26374  0.77881  0.39651  Biso   1.000  O
  O12      1.0000 0.76374  0.27881  0.39651  Biso   1.000  O
  O13      1.0000 0.28724  0.25176  0.52412  Biso   1.000  O
  O14      1.0000 0.78724  0.75176  0.52412  Biso   1.000  O
  O15      1.0000 0.31254  0.72557  0.64990  Biso   1.000  O
  O16      1.0000 0.81254  0.22553  0.64991  Biso   1.000  O
  O17      1.0000 0.24654  0.95030  0.30865  Biso   1.000  O
  O18      1.0000 0.74654  0.45030  0.30865  Biso   1.000  O
  O19      1.0000 0.27140  0.42544  0.43573  Biso   1.000  O
  O20      1.0000 0.77140  0.92544  0.43573  Biso   1.000  O
  O21      1.0000 0.29501  0.90662  0.56191  Biso   1.000  O
  O22      1.0000 0.79500  0.40661  0.56191  Biso   1.000  O
  O23      1.0000 0.31996  0.38557  0.68918  Biso   1.000  O
  O24      1.0000 0.81995  0.88555  0.68918  Biso   1.000  O
  O25      1.0000 0.08228  0.44169  0.35258  Biso   1.000  O
  O26      1.0000 0.58228  0.94169  0.35258  Biso   1.000  O
  O27      1.0000 0.10714  0.91683  0.47966  Biso   1.000  O
  O28      1.0000 0.60715  0.41683  0.47966  Biso   1.000  O
  O29      1.0000 0.11800  0.38068  0.60820  Biso   1.000  O
  O30      1.0000 0.61802  0.88071  0.60820  Biso   1.000  O
  O31      1.0000 0.16364  0.86236  0.73063  Biso   1.000  O
  O32      1.0000 0.66365  0.36235  0.73063  Biso   1.000  O
  O33      1.0000 0.06602  0.63082  0.26942  Biso   1.000  O
  O34      1.0000 0.56602  0.13082  0.26942  Biso   1.000  O
  O35      1.0000 0.09088  0.10596  0.39651  Biso   1.000  O
  O36      1.0000 0.59088  0.60596  0.39651  Biso   1.000  O
  O37      1.0000 0.11738  0.58223  0.52403  Biso   1.000  O
  O38      1.0000 0.61738  0.08222  0.52401  Biso   1.000  O
  O39      1.0000 0.14408  0.05731  0.64970  Biso   1.000  O
  O40      1.0000 0.64407  0.55732  0.64971  Biso   1.000  O
  O41      1.0000 0.41939  0.62314  0.30865  Biso   1.000  O
  O42      1.0000 0.91940  0.12314  0.30865  Biso   1.000  O
  O43      1.0000 0.44427  0.09828  0.43573  Biso   1.000  O
  O44      1.0000 0.94426  0.59828  0.43573  Biso   1.000  O
  O45      1.0000 0.46277  0.57402  0.56192  Biso   1.000  O
  O46      1.0000 0.96279  0.07407  0.56192  Biso   1.000  O
  O47      1.0000 0.48505  0.04935  0.68938  Biso   1.000  O
  O48      1.0000 0.98507  0.54935  0.68938  Biso   1.000  O
