data_image0
_cell_length_a       5.9119
_cell_length_b       17.836
_cell_length_c       33.7844
_cell_angle_alpha    90
_cell_angle_beta     90
_cell_angle_gamma    90

_symmetry_space_group_name_H-M    "P 1"
_symmetry_int_tables_number       1

loop_
  _symmetry_equiv_pos_as_xyz
  'x, y, z'

loop_
  _atom_site_label
  _atom_site_occupancy
  _atom_site_fract_x
  _atom_site_fract_y
  _atom_site_fract_z
  _atom_site_thermal_displace_type
  _atom_site_B_iso_or_equiv
  _atom_site_type_symbol
  Ir1      1.0000 0.75000  0.91647  0.18750  Biso   1.000  Ir
  Ir2      1.0000 0.75000  0.08353  0.18750  Biso   1.000  Ir
  Ir3      1.0000 0.25000  0.58353  0.18750  Biso   1.000  Ir
  Ir4      1.0000 0.25000  0.41647  0.18750  Biso   1.000  Ir
  O1       1.0000 0.78400  0.91500  0.24550  Biso   1.000  O
  O2       1.0000 0.78400  0.08500  0.24550  Biso   1.000  O
  O3       1.0000 0.21600  0.58500  0.24550  Biso   1.000  O
  O4       1.0000 0.21600  0.41500  0.24550  Biso   1.000  O
  O5       1.0000 0.98200  0.00000  0.18225  Biso   1.000  O
  O6       1.0000 0.01800  0.50000  0.18225  Biso   1.000  O
  O7       1.0000 0.51800  0.00000  0.19275  Biso   1.000  O
  O8       1.0000 0.48200  0.50000  0.19275  Biso   1.000  O
  O9       1.0000 0.53000  0.83800  0.18550  Biso   1.000  O
  O10      1.0000 0.53000  0.16200  0.18550  Biso   1.000  O
  O11      1.0000 0.47000  0.66200  0.18550  Biso   1.000  O
  O12      1.0000 0.47000  0.33800  0.18550  Biso   1.000  O
  O13      1.0000 0.97000  0.16200  0.18950  Biso   1.000  O
  O14      1.0000 0.97000  0.83800  0.18950  Biso   1.000  O
  O15      1.0000 0.03000  0.33800  0.18950  Biso   1.000  O
  O16      1.0000 0.03000  0.66200  0.18950  Biso   1.000  O
  Ir5      1.0000 0.25000  0.08353  0.31250  Biso   1.000  Ir
  Ir6      1.0000 0.75000  0.91647  0.43750  Biso   1.000  Ir
  Ir7      1.0000 0.75000  0.08353  0.43750  Biso   1.000  Ir
  Ir8      1.0000 0.25000  0.91647  0.31250  Biso   1.000  Ir
  Ir9      1.0000 0.75000  0.41647  0.31250  Biso   1.000  Ir
  Ir10     1.0000 0.25000  0.58353  0.43750  Biso   1.000  Ir
  Ir11     1.0000 0.25000  0.41647  0.43750  Biso   1.000  Ir
  Ir12     1.0000 0.75000  0.58353  0.31250  Biso   1.000  Ir
  Ir13     1.0000 0.50000  0.16659  0.37500  Biso   1.000  Ir
  Ir14     1.0000 0.50000  0.83341  0.37500  Biso   1.000  Ir
  Ir15     1.0000 0.50000  0.33341  0.37500  Biso   1.000  Ir
  Ir16     1.0000 0.50000  0.66659  0.37500  Biso   1.000  Ir
  Ir17     1.0000 0.00000  0.16659  0.25000  Biso   1.000  Ir
  Ir18     1.0000 0.00000  0.83341  0.25000  Biso   1.000  Ir
  Ir19     1.0000 0.00000  0.33341  0.25000  Biso   1.000  Ir
  Ir20     1.0000 0.00000  0.66659  0.25000  Biso   1.000  Ir
  O17      1.0000 0.71600  0.08500  0.37950  Biso   1.000  O
  O18      1.0000 0.28400  0.91500  0.37050  Biso   1.000  O
  O19      1.0000 0.28400  0.08500  0.37050  Biso   1.000  O
  O20      1.0000 0.71600  0.91500  0.37950  Biso   1.000  O
  O21      1.0000 0.28400  0.41500  0.37950  Biso   1.000  O
  O22      1.0000 0.71600  0.58500  0.37050  Biso   1.000  O
  O23      1.0000 0.71600  0.41500  0.37050  Biso   1.000  O
  O24      1.0000 0.28400  0.58500  0.37950  Biso   1.000  O
  O25      1.0000 0.21600  0.08500  0.25450  Biso   1.000  O
  O26      1.0000 0.78400  0.91500  0.49550  Biso   1.000  O
  O27      1.0000 0.78400  0.08500  0.49550  Biso   1.000  O
  O28      1.0000 0.21600  0.91500  0.25450  Biso   1.000  O
  O29      1.0000 0.78400  0.41500  0.25450  Biso   1.000  O
  O30      1.0000 0.21600  0.58500  0.49550  Biso   1.000  O
  O31      1.0000 0.21600  0.41500  0.49550  Biso   1.000  O
  O32      1.0000 0.78400  0.58500  0.25450  Biso   1.000  O
  O33      1.0000 0.71900  0.25000  0.37500  Biso   1.000  O
  O34      1.0000 0.28100  0.75000  0.37500  Biso   1.000  O
  O35      1.0000 0.28100  0.25000  0.37500  Biso   1.000  O
  O36      1.0000 0.71900  0.75000  0.37500  Biso   1.000  O
  O37      1.0000 0.21900  0.25000  0.25000  Biso   1.000  O
  O38      1.0000 0.78100  0.75000  0.25000  Biso   1.000  O
  O39      1.0000 0.78100  0.25000  0.25000  Biso   1.000  O
  O40      1.0000 0.21900  0.75000  0.25000  Biso   1.000  O
  O41      1.0000 0.01800  0.00000  0.31775  Biso   1.000  O
  O42      1.0000 0.98200  0.00000  0.43225  Biso   1.000  O
  O43      1.0000 0.98200  0.50000  0.31775  Biso   1.000  O
  O44      1.0000 0.01800  0.50000  0.43225  Biso   1.000  O
  O45      1.0000 0.51800  0.00000  0.44275  Biso   1.000  O
  O46      1.0000 0.48200  0.00000  0.30725  Biso   1.000  O
  O47      1.0000 0.48200  0.50000  0.44275  Biso   1.000  O
  O48      1.0000 0.51800  0.50000  0.30725  Biso   1.000  O
  O49      1.0000 0.47000  0.16200  0.31450  Biso   1.000  O
  O50      1.0000 0.53000  0.83800  0.43550  Biso   1.000  O
  O51      1.0000 0.53000  0.16200  0.43550  Biso   1.000  O
  O52      1.0000 0.47000  0.83800  0.31450  Biso   1.000  O
  O53      1.0000 0.53000  0.33800  0.31450  Biso   1.000  O
  O54      1.0000 0.47000  0.66200  0.43550  Biso   1.000  O
  O55      1.0000 0.47000  0.33800  0.43550  Biso   1.000  O
  O56      1.0000 0.53000  0.66200  0.31450  Biso   1.000  O
  O57      1.0000 0.97000  0.16200  0.43950  Biso   1.000  O
  O58      1.0000 0.03000  0.83800  0.31050  Biso   1.000  O
  O59      1.0000 0.03000  0.16200  0.31050  Biso   1.000  O
  O60      1.0000 0.97000  0.83800  0.43950  Biso   1.000  O
  O61      1.0000 0.03000  0.33800  0.43950  Biso   1.000  O
  O62      1.0000 0.97000  0.66200  0.31050  Biso   1.000  O
  O63      1.0000 0.97000  0.33800  0.31050  Biso   1.000  O
  O64      1.0000 0.03000  0.66200  0.43950  Biso   1.000  O
  Ir21     1.0000 0.25000  0.08353  0.56250  Biso   1.000  Ir
  Ir22     1.0000 0.75000  0.91647  0.68750  Biso   1.000  Ir
  Ir23     1.0000 0.75000  0.08353  0.68750  Biso   1.000  Ir
  Ir24     1.0000 0.25000  0.91647  0.56250  Biso   1.000  Ir
  Ir25     1.0000 0.75000  0.41647  0.56250  Biso   1.000  Ir
  Ir26     1.0000 0.25000  0.58353  0.68750  Biso   1.000  Ir
  Ir27     1.0000 0.25000  0.41647  0.68750  Biso   1.000  Ir
  Ir28     1.0000 0.75000  0.58353  0.56250  Biso   1.000  Ir
  Ir29     1.0000 0.50000  0.16659  0.62500  Biso   1.000  Ir
  Ir30     1.0000 0.50000  0.83341  0.62500  Biso   1.000  Ir
  Ir31     1.0000 0.50000  0.33341  0.62500  Biso   1.000  Ir
  Ir32     1.0000 0.50000  0.66659  0.62500  Biso   1.000  Ir
  Ir33     1.0000 0.00000  0.16659  0.50000  Biso   1.000  Ir
  Ir34     1.0000 0.00000  0.83341  0.50000  Biso   1.000  Ir
  Ir35     1.0000 0.00000  0.33341  0.50000  Biso   1.000  Ir
  Ir36     1.0000 0.00000  0.66659  0.50000  Biso   1.000  Ir
  O65      1.0000 0.71600  0.08500  0.62950  Biso   1.000  O
  O66      1.0000 0.28400  0.91500  0.62050  Biso   1.000  O
  O67      1.0000 0.28400  0.08500  0.62050  Biso   1.000  O
  O68      1.0000 0.71600  0.91500  0.62950  Biso   1.000  O
  O69      1.0000 0.28400  0.41500  0.62950  Biso   1.000  O
  O70      1.0000 0.71600  0.58500  0.62050  Biso   1.000  O
  O71      1.0000 0.71600  0.41500  0.62050  Biso   1.000  O
  O72      1.0000 0.28400  0.58500  0.62950  Biso   1.000  O
  O73      1.0000 0.21600  0.08500  0.50450  Biso   1.000  O
  O74      1.0000 0.78400  0.91500  0.74550  Biso   1.000  O
  O75      1.0000 0.78400  0.08500  0.74550  Biso   1.000  O
  O76      1.0000 0.21600  0.91500  0.50450  Biso   1.000  O
  O77      1.0000 0.78400  0.41500  0.50450  Biso   1.000  O
  O78      1.0000 0.21600  0.58500  0.74550  Biso   1.000  O
  O79      1.0000 0.21600  0.41500  0.74550  Biso   1.000  O
  O80      1.0000 0.78400  0.58500  0.50450  Biso   1.000  O
  O81      1.0000 0.71900  0.25000  0.62500  Biso   1.000  O
  O82      1.0000 0.28100  0.75000  0.62500  Biso   1.000  O
  O83      1.0000 0.28100  0.25000  0.62500  Biso   1.000  O
  O84      1.0000 0.71900  0.75000  0.62500  Biso   1.000  O
  O85      1.0000 0.21900  0.25000  0.50000  Biso   1.000  O
  O86      1.0000 0.78100  0.75000  0.50000  Biso   1.000  O
  O87      1.0000 0.78100  0.25000  0.50000  Biso   1.000  O
  O88      1.0000 0.21900  0.75000  0.50000  Biso   1.000  O
  O89      1.0000 0.01800  0.00000  0.56775  Biso   1.000  O
  O90      1.0000 0.98200  0.00000  0.68225  Biso   1.000  O
  O91      1.0000 0.98200  0.50000  0.56775  Biso   1.000  O
  O92      1.0000 0.01800  0.50000  0.68225  Biso   1.000  O
  O93      1.0000 0.51800  0.00000  0.69275  Biso   1.000  O
  O94      1.0000 0.48200  0.00000  0.55725  Biso   1.000  O
  O95      1.0000 0.48200  0.50000  0.69275  Biso   1.000  O
  O96      1.0000 0.51800  0.50000  0.55725  Biso   1.000  O
  O97      1.0000 0.47000  0.16200  0.56450  Biso   1.000  O
  O98      1.0000 0.53000  0.83800  0.68550  Biso   1.000  O
  O99      1.0000 0.53000  0.16200  0.68550  Biso   1.000  O
  O100     1.0000 0.47000  0.83800  0.56450  Biso   1.000  O
  O101     1.0000 0.53000  0.33800  0.56450  Biso   1.000  O
  O102     1.0000 0.47000  0.66200  0.68550  Biso   1.000  O
  O103     1.0000 0.47000  0.33800  0.68550  Biso   1.000  O
  O104     1.0000 0.53000  0.66200  0.56450  Biso   1.000  O
  O105     1.0000 0.97000  0.16200  0.68950  Biso   1.000  O
  O106     1.0000 0.03000  0.83800  0.56050  Biso   1.000  O
  O107     1.0000 0.03000  0.16200  0.56050  Biso   1.000  O
  O108     1.0000 0.97000  0.83800  0.68950  Biso   1.000  O
  O109     1.0000 0.03000  0.33800  0.68950  Biso   1.000  O
  O110     1.0000 0.97000  0.66200  0.56050  Biso   1.000  O
  O111     1.0000 0.97000  0.33800  0.56050  Biso   1.000  O
  O112     1.0000 0.03000  0.66200  0.68950  Biso   1.000  O
  Ir37     1.0000 0.00000  0.16659  0.75000  Biso   1.000  Ir
  Ir38     1.0000 0.00000  0.83341  0.75000  Biso   1.000  Ir
  Ir39     1.0000 0.00000  0.33341  0.75000  Biso   1.000  Ir
  Ir40     1.0000 0.00000  0.66659  0.75000  Biso   1.000  Ir
  O113     1.0000 0.21600  0.08500  0.75450  Biso   1.000  O
  O114     1.0000 0.21600  0.91500  0.75450  Biso   1.000  O
  O115     1.0000 0.78400  0.41500  0.75450  Biso   1.000  O
  O116     1.0000 0.78400  0.58500  0.75450  Biso   1.000  O
  O117     1.0000 0.21900  0.25000  0.75000  Biso   1.000  O
  O118     1.0000 0.78100  0.75000  0.75000  Biso   1.000  O
  O119     1.0000 0.78100  0.25000  0.75000  Biso   1.000  O
  O120     1.0000 0.21900  0.75000  0.75000  Biso   1.000  O
