data_image0
_cell_length_a       9.3927
_cell_length_b       8.72335
_cell_length_c       27.0937
_cell_angle_alpha    90
_cell_angle_beta     90
_cell_angle_gamma    90

_symmetry_space_group_name_H-M    "P 1"
_symmetry_int_tables_number       1

loop_
  _symmetry_equiv_pos_as_xyz
  'x, y, z'

loop_
  _atom_site_label
  _atom_site_occupancy
  _atom_site_fract_x
  _atom_site_fract_y
  _atom_site_fract_z
  _atom_site_thermal_displace_type
  _atom_site_B_iso_or_equiv
  _atom_site_type_symbol
  O1       1.0000 0.19637  0.32474  0.27682  Biso   1.000  O
  O2       1.0000 0.19637  0.67526  0.27682  Biso   1.000  O
  O3       1.0000 0.44636  0.17526  0.28985  Biso   1.000  O
  O4       1.0000 0.44636  0.82474  0.28985  Biso   1.000  O
  O5       1.0000 0.43034  0.50000  0.29540  Biso   1.000  O
  O6       1.0000 0.24999  0.50000  0.35792  Biso   1.000  O
  O7       1.0000 0.23397  0.17526  0.36348  Biso   1.000  O
  O8       1.0000 0.23397  0.82474  0.36348  Biso   1.000  O
  O9       1.0000 0.48397  0.32474  0.37652  Biso   1.000  O
  O10      1.0000 0.48397  0.67526  0.37652  Biso   1.000  O
  O11      1.0000 0.50000  0.00000  0.38207  Biso   1.000  O
  O12      1.0000 0.18034  0.00000  0.44458  Biso   1.000  O
  O13      1.0000 0.19637  0.32474  0.45015  Biso   1.000  O
  O14      1.0000 0.19637  0.67526  0.45015  Biso   1.000  O
  O15      1.0000 0.44636  0.17526  0.46318  Biso   1.000  O
  O16      1.0000 0.44636  0.82474  0.46318  Biso   1.000  O
  O17      1.0000 0.43034  0.50000  0.46873  Biso   1.000  O
  O18      1.0000 0.24999  0.50000  0.53127  Biso   1.000  O
  O19      1.0000 0.23397  0.17526  0.53682  Biso   1.000  O
  O20      1.0000 0.23397  0.82474  0.53682  Biso   1.000  O
  O21      1.0000 0.48339  0.32456  0.55023  Biso   1.000  O
  O22      1.0000 0.48273  0.67388  0.54986  Biso   1.000  O
  O23      1.0000 0.49721  0.99879  0.55456  Biso   1.000  O
  O24      1.0000 0.17907  0.00042  0.61887  Biso   1.000  O
  O25      1.0000 0.19739  0.32358  0.62173  Biso   1.000  O
  O26      1.0000 0.20332  0.67471  0.62094  Biso   1.000  O
  O27      1.0000 0.44394  0.17217  0.63673  Biso   1.000  O
  O28      1.0000 0.44920  0.82098  0.63808  Biso   1.000  O
  O29      1.0000 0.41354  0.49878  0.63953  Biso   1.000  O
  O30      1.0000 0.25072  0.49733  0.70764  Biso   1.000  O
  O31      1.0000 0.22387  0.19385  0.70662  Biso   1.000  O
  O32      1.0000 0.22178  0.80104  0.70623  Biso   1.000  O
  O33      1.0000 0.49095  0.32668  0.71816  Biso   1.000  O
  O34      1.0000 0.48687  0.66736  0.72052  Biso   1.000  O
  O35      1.0000 0.69637  0.32474  0.27682  Biso   1.000  O
  O36      1.0000 0.69637  0.67526  0.27682  Biso   1.000  O
  O37      1.0000 0.94636  0.17526  0.28985  Biso   1.000  O
  O38      1.0000 0.94636  0.82474  0.28985  Biso   1.000  O
  O39      1.0000 0.93034  0.50000  0.29540  Biso   1.000  O
  O40      1.0000 0.74999  0.50000  0.35792  Biso   1.000  O
  O41      1.0000 0.73397  0.17526  0.36348  Biso   1.000  O
  O42      1.0000 0.73397  0.82474  0.36348  Biso   1.000  O
  O43      1.0000 0.98397  0.32474  0.37652  Biso   1.000  O
  O44      1.0000 0.98397  0.67526  0.37652  Biso   1.000  O
  O45      1.0000 0.00000  0.00000  0.38207  Biso   1.000  O
  O46      1.0000 0.68034  0.00000  0.44458  Biso   1.000  O
  O47      1.0000 0.69637  0.32474  0.45015  Biso   1.000  O
  O48      1.0000 0.69637  0.67526  0.45015  Biso   1.000  O
  O49      1.0000 0.94636  0.17526  0.46318  Biso   1.000  O
  O50      1.0000 0.94636  0.82474  0.46318  Biso   1.000  O
  O51      1.0000 0.93034  0.50000  0.46873  Biso   1.000  O
  O52      1.0000 0.74999  0.50000  0.53127  Biso   1.000  O
  O53      1.0000 0.73397  0.17526  0.53682  Biso   1.000  O
  O54      1.0000 0.73397  0.82474  0.53682  Biso   1.000  O
  O55      1.0000 0.98515  0.32592  0.54984  Biso   1.000  O
  O56      1.0000 0.98212  0.67454  0.55115  Biso   1.000  O
  O57      1.0000 0.99993  0.99848  0.55706  Biso   1.000  O
  O58      1.0000 0.67945  0.99660  0.61809  Biso   1.000  O
  O59      1.0000 0.69476  0.32273  0.62620  Biso   1.000  O
  O60      1.0000 0.69544  0.66770  0.62258  Biso   1.000  O
  O61      1.0000 0.94238  0.18055  0.63515  Biso   1.000  O
  O62      1.0000 0.95442  0.82301  0.64018  Biso   1.000  O
  O63      1.0000 0.94306  0.51372  0.64601  Biso   1.000  O
  O64      1.0000 0.75028  0.51376  0.70266  Biso   1.000  O
  O65      1.0000 0.90876  0.27637  0.72598  Biso   1.000  O
  O66      1.0000 0.77653  0.80262  0.72609  Biso   1.000  O
  Ir1      1.0000 0.34016  0.32466  0.32667  Biso   1.000  Ir
  Ir2      1.0000 0.34016  0.67535  0.32667  Biso   1.000  Ir
  Ir3      1.0000 0.09016  0.17534  0.41333  Biso   1.000  Ir
  Ir4      1.0000 0.09016  0.82466  0.41333  Biso   1.000  Ir
  Ir5      1.0000 0.34016  0.32466  0.50000  Biso   1.000  Ir
  Ir6      1.0000 0.34016  0.67535  0.50000  Biso   1.000  Ir
  Ir7      1.0000 0.09074  0.17534  0.58666  Biso   1.000  Ir
  Ir8      1.0000 0.09457  0.82153  0.58680  Biso   1.000  Ir
  Ir9      1.0000 0.34451  0.32045  0.67717  Biso   1.000  Ir
  Ir10     1.0000 0.34546  0.67575  0.67765  Biso   1.000  Ir
  Ir11     1.0000 0.84017  0.32466  0.32667  Biso   1.000  Ir
  Ir12     1.0000 0.84017  0.67535  0.32667  Biso   1.000  Ir
  Ir13     1.0000 0.59016  0.17534  0.41333  Biso   1.000  Ir
  Ir14     1.0000 0.59016  0.82466  0.41333  Biso   1.000  Ir
  Ir15     1.0000 0.84017  0.32466  0.50000  Biso   1.000  Ir
  Ir16     1.0000 0.84017  0.67535  0.50000  Biso   1.000  Ir
  Ir17     1.0000 0.58751  0.17126  0.58660  Biso   1.000  Ir
  Ir18     1.0000 0.58926  0.82337  0.58616  Biso   1.000  Ir
  Ir19     1.0000 0.84522  0.34477  0.66984  Biso   1.000  Ir
  Ir20     1.0000 0.82859  0.70235  0.67399  Biso   1.000  Ir
