data_image0
_cell_length_a       4.88305
_cell_length_b       5.1456
_cell_length_c       53.9142
_cell_angle_alpha    90
_cell_angle_beta     90
_cell_angle_gamma    90

_symmetry_space_group_name_H-M    "P 1"
_symmetry_int_tables_number       1

loop_
  _symmetry_equiv_pos_as_xyz
  'x, y, z'

loop_
  _atom_site_label
  _atom_site_occupancy
  _atom_site_fract_x
  _atom_site_fract_y
  _atom_site_fract_z
  _atom_site_thermal_displace_type
  _atom_site_B_iso_or_equiv
  _atom_site_type_symbol
  O1       1.0000 0.80891  0.10096  0.14038  Biso   1.000  O
  O2       1.0000 0.99902  0.59989  0.14036  Biso   1.000  O
  O3       1.0000 0.48402  0.74713  0.16214  Biso   1.000  O
  O4       1.0000 0.32435  0.24697  0.16216  Biso   1.000  O
  O5       1.0000 0.82765  0.38983  0.18247  Biso   1.000  O
  O6       1.0000 0.98114  0.88928  0.18252  Biso   1.000  O
  O7       1.0000 0.51438  0.04798  0.20402  Biso   1.000  O
  O8       1.0000 0.29466  0.54778  0.20402  Biso   1.000  O
  O9       1.0000 0.98216  0.20199  0.22766  Biso   1.000  O
  O10      1.0000 0.82617  0.70144  0.22762  Biso   1.000  O
  O11      1.0000 0.32585  0.84361  0.24782  Biso   1.000  O
  O12      1.0000 0.48311  0.34395  0.24782  Biso   1.000  O
  O13      1.0000 0.00288  0.49772  0.27017  Biso   1.000  O
  O14      1.0000 0.80663  0.99726  0.27017  Biso   1.000  O
  O15      1.0000 0.48268  0.65131  0.29301  Biso   1.000  O
  O16      1.0000 0.32689  0.15189  0.29302  Biso   1.000  O
  O17      1.0000 0.82719  0.29285  0.31327  Biso   1.000  O
  O18      1.0000 0.98263  0.79295  0.31330  Biso   1.000  O
  O19      1.0000 0.30802  0.44806  0.33590  Biso   1.000  O
  O20      1.0000 0.50081  0.94797  0.33593  Biso   1.000  O
  O21      1.0000 0.98262  0.10179  0.35848  Biso   1.000  O
  O22      1.0000 0.82573  0.60208  0.35850  Biso   1.000  O
  O23      1.0000 0.32573  0.74350  0.37872  Biso   1.000  O
  O24      1.0000 0.48260  0.24365  0.37878  Biso   1.000  O
  O25      1.0000 0.00022  0.39728  0.40155  Biso   1.000  O
  O26      1.0000 0.80785  0.89765  0.40159  Biso   1.000  O
  O27      1.0000 0.48235  0.55202  0.42404  Biso   1.000  O
  O28      1.0000 0.32592  0.05223  0.42404  Biso   1.000  O
  O29      1.0000 0.82627  0.19253  0.44436  Biso   1.000  O
  O30      1.0000 0.98197  0.69228  0.44444  Biso   1.000  O
  O31      1.0000 0.30796  0.34748  0.46716  Biso   1.000  O
  O32      1.0000 0.50022  0.84647  0.46717  Biso   1.000  O
  O33      1.0000 0.98184  0.00414  0.48980  Biso   1.000  O
  O34      1.0000 0.82782  0.50386  0.48981  Biso   1.000  O
  O35      1.0000 0.32826  0.64299  0.51023  Biso   1.000  O
  O36      1.0000 0.48203  0.14355  0.51024  Biso   1.000  O
  O37      1.0000 0.99967  0.29871  0.53288  Biso   1.000  O
  O38      1.0000 0.80899  0.79780  0.53289  Biso   1.000  O
  O39      1.0000 0.48218  0.45358  0.55551  Biso   1.000  O
  O40      1.0000 0.32618  0.95367  0.55545  Biso   1.000  O
  O41      1.0000 0.82668  0.09369  0.57594  Biso   1.000  O
  O42      1.0000 0.98183  0.59409  0.57589  Biso   1.000  O
  O43      1.0000 0.31023  0.24831  0.59855  Biso   1.000  O
  O44      1.0000 0.49805  0.74875  0.59851  Biso   1.000  O
  O45      1.0000 0.98278  0.90231  0.62098  Biso   1.000  O
  O46      1.0000 0.82568  0.40282  0.62101  Biso   1.000  O
  O47      1.0000 0.32591  0.54443  0.64139  Biso   1.000  O
  O48      1.0000 0.48231  0.04367  0.64141  Biso   1.000  O
  O49      1.0000 0.99858  0.19806  0.66397  Biso   1.000  O
  O50      1.0000 0.80982  0.69850  0.66399  Biso   1.000  O
  O51      1.0000 0.48235  0.35281  0.68652  Biso   1.000  O
  O52      1.0000 0.32779  0.85402  0.68652  Biso   1.000  O
  O53      1.0000 0.82747  0.99420  0.70697  Biso   1.000  O
  O54      1.0000 0.98218  0.49412  0.70696  Biso   1.000  O
  O55      1.0000 0.30641  0.14864  0.72973  Biso   1.000  O
  O56      1.0000 0.50130  0.64957  0.72969  Biso   1.000  O
  O57      1.0000 0.98165  0.80411  0.75205  Biso   1.000  O
  O58      1.0000 0.82608  0.30411  0.75198  Biso   1.000  O
  O59      1.0000 0.32657  0.44456  0.77243  Biso   1.000  O
  O60      1.0000 0.48138  0.94436  0.77234  Biso   1.000  O
  O61      1.0000 0.01264  0.09876  0.79595  Biso   1.000  O
  O62      1.0000 0.79538  0.59873  0.79596  Biso   1.000  O
  O63      1.0000 0.48046  0.25706  0.81789  Biso   1.000  O
  O64      1.0000 0.32736  0.75722  0.81792  Biso   1.000  O
  O65      1.0000 0.82583  0.89940  0.83797  Biso   1.000  O
  O66      1.0000 0.98197  0.39909  0.83795  Biso   1.000  O
  O67      1.0000 0.31019  0.04571  0.86001  Biso   1.000  O
  O68      1.0000 0.49823  0.54659  0.85996  Biso   1.000  O
  Ir1      1.0000 0.65967  0.07376  0.17019  Biso   1.000  Ir
  Ir2      1.0000 0.14892  0.57373  0.17020  Biso   1.000  Ir
  Ir3      1.0000 0.65158  0.02096  0.23714  Biso   1.000  Ir
  Ir4      1.0000 0.15718  0.52101  0.23713  Biso   1.000  Ir
  Ir5      1.0000 0.15432  0.47192  0.30300  Biso   1.000  Ir
  Ir6      1.0000 0.65476  0.97167  0.30301  Biso   1.000  Ir
  Ir7      1.0000 0.15382  0.42273  0.36871  Biso   1.000  Ir
  Ir8      1.0000 0.65458  0.92285  0.36873  Biso   1.000  Ir
  Ir9      1.0000 0.15439  0.37290  0.43427  Biso   1.000  Ir
  Ir10     1.0000 0.65379  0.87277  0.43429  Biso   1.000  Ir
  Ir11     1.0000 0.15437  0.32382  0.49990  Biso   1.000  Ir
  Ir12     1.0000 0.65526  0.82384  0.49990  Biso   1.000  Ir
  Ir13     1.0000 0.15426  0.27435  0.56565  Biso   1.000  Ir
  Ir14     1.0000 0.65405  0.77433  0.56564  Biso   1.000  Ir
  Ir15     1.0000 0.15413  0.22400  0.63131  Biso   1.000  Ir
  Ir16     1.0000 0.65448  0.72411  0.63130  Biso   1.000  Ir
  Ir17     1.0000 0.15490  0.17423  0.69694  Biso   1.000  Ir
  Ir18     1.0000 0.65429  0.67415  0.69695  Biso   1.000  Ir
  Ir19     1.0000 0.15060  0.12536  0.76297  Biso   1.000  Ir
  Ir20     1.0000 0.65753  0.62518  0.76298  Biso   1.000  Ir
  Ir21     1.0000 0.15920  0.07213  0.83010  Biso   1.000  Ir
  Ir22     1.0000 0.64926  0.57227  0.83009  Biso   1.000  Ir
  H1       1.0000 0.31019  0.94854  0.87299  Biso   1.000  H
  H2       1.0000 0.49823  0.42998  0.87480  Biso   1.000  H
  H3       1.0000 0.80891  0.19813  0.12554  Biso   1.000  H
  H4       1.0000 0.99902  0.69706  0.12553  Biso   1.000  H
