data_image0
_cell_length_a       8.45769
_cell_length_b       4.88305
_cell_length_c       27.9135
_cell_angle_alpha    90
_cell_angle_beta     90
_cell_angle_gamma    90

_symmetry_space_group_name_H-M    "P 1"
_symmetry_int_tables_number       1

loop_
  _symmetry_equiv_pos_as_xyz
  'x, y, z'

loop_
  _atom_site_label
  _atom_site_occupancy
  _atom_site_fract_x
  _atom_site_fract_y
  _atom_site_fract_z
  _atom_site_thermal_displace_type
  _atom_site_B_iso_or_equiv
  _atom_site_type_symbol
  Ir1      1.0000 0.66976  0.07715  0.53855  Biso   1.000  Ir
  Ir2      1.0000 0.16976  0.57715  0.53855  Biso   1.000  Ir
  Ir3      1.0000 0.00309  0.07715  0.38434  Biso   1.000  Ir
  Ir4      1.0000 0.50309  0.57715  0.38434  Biso   1.000  Ir
  Ir5      1.0000 0.33642  0.07715  0.69276  Biso   1.000  Ir
  Ir6      1.0000 0.83642  0.57715  0.69276  Biso   1.000  Ir
  Ir7      1.0000 0.66976  0.07715  0.30723  Biso   1.000  Ir
  Ir8      1.0000 0.16976  0.57715  0.30723  Biso   1.000  Ir
  Ir9      1.0000 0.50309  0.57715  0.61566  Biso   1.000  Ir
  Ir10     1.0000 0.00309  0.07715  0.61566  Biso   1.000  Ir
  Ir11     1.0000 0.33642  0.07715  0.46144  Biso   1.000  Ir
  Ir12     1.0000 0.83642  0.57715  0.46144  Biso   1.000  Ir
  O1       1.0000 0.66357  0.40430  0.57710  Biso   1.000  O
  O2       1.0000 0.16357  0.90430  0.57710  Biso   1.000  O
  O3       1.0000 0.49692  0.90430  0.42290  Biso   1.000  O
  O4       1.0000 0.99691  0.40430  0.42290  Biso   1.000  O
  O5       1.0000 0.33024  0.40430  0.26869  Biso   1.000  O
  O6       1.0000 0.83024  0.90430  0.26869  Biso   1.000  O
  O7       1.0000 0.49691  0.25000  0.65420  Biso   1.000  O
  O8       1.0000 0.99691  0.75000  0.65420  Biso   1.000  O
  O9       1.0000 0.33024  0.75000  0.49999  Biso   1.000  O
  O10      1.0000 0.83024  0.25000  0.49999  Biso   1.000  O
  O11      1.0000 0.66357  0.75000  0.34578  Biso   1.000  O
  O12      1.0000 0.16356  0.25000  0.34578  Biso   1.000  O
  O13      1.0000 0.50927  0.90430  0.57710  Biso   1.000  O
  O14      1.0000 0.00927  0.40430  0.57710  Biso   1.000  O
  O15      1.0000 0.34261  0.40430  0.42290  Biso   1.000  O
  O16      1.0000 0.84261  0.90430  0.42290  Biso   1.000  O
  O17      1.0000 0.17593  0.90430  0.26869  Biso   1.000  O
  O18      1.0000 0.67594  0.40430  0.26869  Biso   1.000  O
  O19      1.0000 0.34262  0.75000  0.65420  Biso   1.000  O
  O20      1.0000 0.84262  0.25000  0.65420  Biso   1.000  O
  O21      1.0000 0.17595  0.25000  0.49999  Biso   1.000  O
  O22      1.0000 0.67594  0.75000  0.49999  Biso   1.000  O
  O23      1.0000 0.50927  0.25000  0.34578  Biso   1.000  O
  O24      1.0000 0.00927  0.75000  0.34578  Biso   1.000  O
  O25      1.0000 0.83642  0.92284  0.57710  Biso   1.000  O
  O26      1.0000 0.33642  0.42284  0.57710  Biso   1.000  O
  O27      1.0000 0.16976  0.92284  0.42290  Biso   1.000  O
  O28      1.0000 0.66976  0.42284  0.42290  Biso   1.000  O
  O29      1.0000 0.50309  0.92284  0.26869  Biso   1.000  O
  O30      1.0000 0.00309  0.42284  0.26869  Biso   1.000  O
  O31      1.0000 0.16976  0.23144  0.65420  Biso   1.000  O
  O32      1.0000 0.66976  0.73144  0.65420  Biso   1.000  O
  O33      1.0000 0.50309  0.23144  0.49999  Biso   1.000  O
  O34      1.0000 0.00309  0.73144  0.49999  Biso   1.000  O
  O35      1.0000 0.83642  0.23144  0.34578  Biso   1.000  O
  O36      1.0000 0.33642  0.73144  0.34578  Biso   1.000  O
  O37      1.0000 0.33024  0.40430  0.73131  Biso   1.000  O
  O38      1.0000 0.83024  0.90430  0.73131  Biso   1.000  O
  O39      1.0000 0.17593  0.90430  0.73131  Biso   1.000  O
  O40      1.0000 0.67594  0.40430  0.73131  Biso   1.000  O
  O41      1.0000 0.50309  0.92284  0.73131  Biso   1.000  O
  O42      1.0000 0.00309  0.42284  0.73131  Biso   1.000  O
