data_image0
_cell_length_a       6.64164
_cell_length_b       8.72335
_cell_length_c       28.2831
_cell_angle_alpha    90
_cell_angle_beta     90
_cell_angle_gamma    90

_symmetry_space_group_name_H-M    "P 1"
_symmetry_int_tables_number       1

loop_
  _symmetry_equiv_pos_as_xyz
  'x, y, z'

loop_
  _atom_site_label
  _atom_site_occupancy
  _atom_site_fract_x
  _atom_site_fract_y
  _atom_site_fract_z
  _atom_site_thermal_displace_type
  _atom_site_B_iso_or_equiv
  _atom_site_type_symbol
  O1       1.0000 0.50000  0.32474  0.26518  Biso   1.000  O
  O2       1.0000 0.50000  0.67526  0.26518  Biso   1.000  O
  O3       1.0000 0.50000  0.00000  0.27269  Biso   1.000  O
  O4       1.0000 0.21239  0.17526  0.31505  Biso   1.000  O
  O5       1.0000 0.78761  0.17526  0.31505  Biso   1.000  O
  O6       1.0000 0.18035  0.50000  0.31505  Biso   1.000  O
  O7       1.0000 0.81965  0.50000  0.31505  Biso   1.000  O
  O8       1.0000 0.21239  0.82474  0.31505  Biso   1.000  O
  O9       1.0000 0.78761  0.82474  0.31505  Biso   1.000  O
  O10      1.0000 0.50000  0.00000  0.35740  Biso   1.000  O
  O11      1.0000 0.50000  0.32474  0.36493  Biso   1.000  O
  O12      1.0000 0.50000  0.67526  0.36493  Biso   1.000  O
  O13      1.0000 0.00000  0.32474  0.38258  Biso   1.000  O
  O14      1.0000 0.00000  0.67526  0.38258  Biso   1.000  O
  O15      1.0000 0.00000  0.00000  0.39012  Biso   1.000  O
  O16      1.0000 0.28761  0.17526  0.43246  Biso   1.000  O
  O17      1.0000 0.71239  0.17526  0.43246  Biso   1.000  O
  O18      1.0000 0.28761  0.82474  0.43246  Biso   1.000  O
  O19      1.0000 0.31965  0.50000  0.43246  Biso   1.000  O
  O20      1.0000 0.68035  0.50000  0.43246  Biso   1.000  O
  O21      1.0000 0.71239  0.82474  0.43246  Biso   1.000  O
  O22      1.0000 0.00000  0.00000  0.47481  Biso   1.000  O
  O23      1.0000 0.00000  0.32474  0.48234  Biso   1.000  O
  O24      1.0000 0.00000  0.67526  0.48234  Biso   1.000  O
  O25      1.0000 0.50000  0.32474  0.49999  Biso   1.000  O
  O26      1.0000 0.50000  0.67526  0.49999  Biso   1.000  O
  O27      1.0000 0.50000  0.00000  0.50753  Biso   1.000  O
  O28      1.0000 0.21142  0.17403  0.54960  Biso   1.000  O
  O29      1.0000 0.78750  0.17411  0.54950  Biso   1.000  O
  O30      1.0000 0.18000  0.49951  0.55063  Biso   1.000  O
  O31      1.0000 0.82001  0.50006  0.55075  Biso   1.000  O
  O32      1.0000 0.78748  0.82477  0.55011  Biso   1.000  O
  O33      1.0000 0.21222  0.82592  0.54940  Biso   1.000  O
  O34      1.0000 0.49942  0.00061  0.59197  Biso   1.000  O
  O35      1.0000 0.49778  0.32541  0.59852  Biso   1.000  O
  O36      1.0000 0.49620  0.68327  0.60172  Biso   1.000  O
  O37      1.0000 0.99926  0.32109  0.61800  Biso   1.000  O
  O38      1.0000 0.00435  0.67942  0.61790  Biso   1.000  O
  O39      1.0000 0.00224  0.00078  0.62679  Biso   1.000  O
  O40      1.0000 0.29194  0.17414  0.66594  Biso   1.000  O
  O41      1.0000 0.71097  0.17371  0.66793  Biso   1.000  O
  O42      1.0000 0.32135  0.50255  0.66876  Biso   1.000  O
  O43      1.0000 0.68084  0.50065  0.66574  Biso   1.000  O
  O44      1.0000 0.29161  0.82957  0.66821  Biso   1.000  O
  O45      1.0000 0.71021  0.83145  0.66493  Biso   1.000  O
  O46      1.0000 0.00012  0.00011  0.71119  Biso   1.000  O
  O47      1.0000 0.00618  0.30149  0.71951  Biso   1.000  O
  O48      1.0000 0.99275  0.69744  0.71823  Biso   1.000  O
  O49      1.0000 0.49836  0.32945  0.73445  Biso   1.000  O
  O50      1.0000 0.51831  0.68766  0.73384  Biso   1.000  O
  Ir1      1.0000 0.50000  0.17534  0.31505  Biso   1.000  Ir
  Ir2      1.0000 0.00000  0.32465  0.31505  Biso   1.000  Ir
  Ir3      1.0000 0.00000  0.67534  0.31505  Biso   1.000  Ir
  Ir4      1.0000 0.50000  0.82466  0.31505  Biso   1.000  Ir
  Ir5      1.0000 0.00000  0.17534  0.43246  Biso   1.000  Ir
  Ir6      1.0000 0.50000  0.32465  0.43246  Biso   1.000  Ir
  Ir7      1.0000 0.50000  0.67534  0.43246  Biso   1.000  Ir
  Ir8      1.0000 0.00000  0.82466  0.43246  Biso   1.000  Ir
  Ir9      1.0000 0.49965  0.17477  0.54941  Biso   1.000  Ir
  Ir10     1.0000 0.99955  0.32418  0.54977  Biso   1.000  Ir
  Ir11     1.0000 0.00062  0.67572  0.54982  Biso   1.000  Ir
  Ir12     1.0000 0.49994  0.82380  0.55034  Biso   1.000  Ir
  Ir13     1.0000 0.00100  0.17899  0.66920  Biso   1.000  Ir
  Ir14     1.0000 0.50056  0.32531  0.66580  Biso   1.000  Ir
  Ir15     1.0000 0.50162  0.67595  0.67181  Biso   1.000  Ir
  Ir16     1.0000 0.00034  0.82299  0.66849  Biso   1.000  Ir
  H1       1.0000 0.55435  0.23370  0.74694  Biso   1.000  H
