data_image0
_cell_length_a       4.88305
_cell_length_b       7.09375
_cell_length_c       61.3027
_cell_angle_alpha    90
_cell_angle_beta     90
_cell_angle_gamma    90

_symmetry_space_group_name_H-M    "P 1"
_symmetry_int_tables_number       1

loop_
  _symmetry_equiv_pos_as_xyz
  'x, y, z'

loop_
  _atom_site_label
  _atom_site_occupancy
  _atom_site_fract_x
  _atom_site_fract_y
  _atom_site_fract_z
  _atom_site_thermal_displace_type
  _atom_site_B_iso_or_equiv
  _atom_site_type_symbol
  O1       1.0000 0.00000  0.79852  0.14497  Biso   1.000  O
  O2       1.0000 0.65430  0.29853  0.14497  Biso   1.000  O
  O3       1.0000 0.15430  0.44475  0.15789  Biso   1.000  O
  O4       1.0000 0.50000  0.94476  0.15789  Biso   1.000  O
  O5       1.0000 0.98146  0.10856  0.17236  Biso   1.000  O
  Ir1      1.0000 0.82716  0.35856  0.17236  Biso   1.000  Ir
  O6       1.0000 0.67286  0.60856  0.17236  Biso   1.000  O
  Ir2      1.0000 0.82716  0.85856  0.17236  Biso   1.000  Ir
  O7       1.0000 0.50000  0.27236  0.18683  Biso   1.000  O
  O8       1.0000 0.15430  0.77237  0.18683  Biso   1.000  O
  O9       1.0000 0.65430  0.91859  0.19975  Biso   1.000  O
  O10      1.0000 0.00000  0.41860  0.19975  Biso   1.000  O
  O11      1.0000 0.17287  0.08240  0.21422  Biso   1.000  O
  Ir3      1.0000 0.32716  0.33240  0.21422  Biso   1.000  Ir
  O12      1.0000 0.48147  0.58240  0.21422  Biso   1.000  O
  Ir4      1.0000 0.32716  0.83240  0.21422  Biso   1.000  Ir
  O13      1.0000 0.00000  0.74620  0.22869  Biso   1.000  O
  O14      1.0000 0.65430  0.24621  0.22869  Biso   1.000  O
  O15      1.0000 0.15430  0.39242  0.24161  Biso   1.000  O
  O16      1.0000 0.50000  0.89243  0.24161  Biso   1.000  O
  O17      1.0000 0.98147  0.05624  0.25608  Biso   1.000  O
  Ir5      1.0000 0.82716  0.30624  0.25608  Biso   1.000  Ir
  O18      1.0000 0.67287  0.55624  0.25608  Biso   1.000  O
  Ir6      1.0000 0.82716  0.80624  0.25608  Biso   1.000  Ir
  O19      1.0000 0.50000  0.22004  0.27055  Biso   1.000  O
  O20      1.0000 0.15430  0.72005  0.27055  Biso   1.000  O
  O21      1.0000 0.65430  0.86626  0.28347  Biso   1.000  O
  O22      1.0000 0.00000  0.36627  0.28347  Biso   1.000  O
  O23      1.0000 0.17287  0.03007  0.29794  Biso   1.000  O
  Ir7      1.0000 0.32716  0.28007  0.29794  Biso   1.000  Ir
  O24      1.0000 0.48147  0.53007  0.29794  Biso   1.000  O
  Ir8      1.0000 0.32716  0.78007  0.29794  Biso   1.000  Ir
  O25      1.0000 0.00000  0.69387  0.31241  Biso   1.000  O
  O26      1.0000 0.65430  0.19388  0.31241  Biso   1.000  O
  O27      1.0000 0.15430  0.34010  0.32533  Biso   1.000  O
  O28      1.0000 0.50000  0.84011  0.32533  Biso   1.000  O
  O29      1.0000 0.98147  0.00391  0.33980  Biso   1.000  O
  Ir9      1.0000 0.82716  0.25391  0.33980  Biso   1.000  Ir
  O30      1.0000 0.67287  0.50391  0.33980  Biso   1.000  O
  Ir10     1.0000 0.82716  0.75391  0.33980  Biso   1.000  Ir
  O31      1.0000 0.50000  0.16771  0.35427  Biso   1.000  O
  O32      1.0000 0.15430  0.66772  0.35427  Biso   1.000  O
  O33      1.0000 0.65430  0.81394  0.36719  Biso   1.000  O
  O34      1.0000 0.00000  0.31395  0.36719  Biso   1.000  O
  Ir11     1.0000 0.32716  0.22775  0.38166  Biso   1.000  Ir
  O35      1.0000 0.48147  0.47775  0.38166  Biso   1.000  O
  Ir12     1.0000 0.32716  0.72775  0.38166  Biso   1.000  Ir
  O36      1.0000 0.17287  0.97775  0.38166  Biso   1.000  O
  O37      1.0000 0.00000  0.64155  0.39613  Biso   1.000  O
  O38      1.0000 0.65430  0.14156  0.39613  Biso   1.000  O
  O39      1.0000 0.15430  0.28778  0.40905  Biso   1.000  O
  O40      1.0000 0.50000  0.78779  0.40905  Biso   1.000  O
  Ir13     1.0000 0.82716  0.20159  0.42352  Biso   1.000  Ir
  O41      1.0000 0.67287  0.45159  0.42352  Biso   1.000  O
  Ir14     1.0000 0.82716  0.70159  0.42352  Biso   1.000  Ir
  O42      1.0000 0.98147  0.95159  0.42352  Biso   1.000  O
  O43      1.0000 0.50000  0.11539  0.43799  Biso   1.000  O
  O44      1.0000 0.15430  0.61540  0.43799  Biso   1.000  O
  O45      1.0000 0.65430  0.76161  0.45090  Biso   1.000  O
  O46      1.0000 0.00000  0.26162  0.45091  Biso   1.000  O
  Ir15     1.0000 0.32716  0.17542  0.46538  Biso   1.000  Ir
  O47      1.0000 0.48147  0.42542  0.46538  Biso   1.000  O
  Ir16     1.0000 0.32716  0.67542  0.46538  Biso   1.000  Ir
  O48      1.0000 0.17287  0.92542  0.46538  Biso   1.000  O
  O49      1.0000 0.00000  0.58922  0.47985  Biso   1.000  O
  O50      1.0000 0.65430  0.08923  0.47985  Biso   1.000  O
  O51      1.0000 0.15430  0.23545  0.49276  Biso   1.000  O
  O52      1.0000 0.50000  0.73546  0.49276  Biso   1.000  O
  Ir17     1.0000 0.82716  0.14926  0.50724  Biso   1.000  Ir
  O53      1.0000 0.67287  0.39926  0.50724  Biso   1.000  O
  Ir18     1.0000 0.82715  0.64926  0.50724  Biso   1.000  Ir
  O54      1.0000 0.98147  0.89926  0.50724  Biso   1.000  O
  O55      1.0000 0.50000  0.06306  0.52171  Biso   1.000  O
  O56      1.0000 0.15430  0.56307  0.52171  Biso   1.000  O
  O57      1.0000 0.65430  0.70929  0.53462  Biso   1.000  O
  O58      1.0000 0.00000  0.20930  0.53462  Biso   1.000  O
  Ir19     1.0000 0.32715  0.12310  0.54909  Biso   1.000  Ir
  O59      1.0000 0.48147  0.37310  0.54909  Biso   1.000  O
  Ir20     1.0000 0.32716  0.62310  0.54909  Biso   1.000  Ir
  O60      1.0000 0.17287  0.87310  0.54909  Biso   1.000  O
  O61      1.0000 0.00000  0.53690  0.56357  Biso   1.000  O
  O62      1.0000 0.65430  0.03691  0.56357  Biso   1.000  O
  O63      1.0000 0.15430  0.18313  0.57648  Biso   1.000  O
  O64      1.0000 0.50000  0.68314  0.57648  Biso   1.000  O
  Ir21     1.0000 0.82716  0.09694  0.59095  Biso   1.000  Ir
  O65      1.0000 0.67287  0.34694  0.59095  Biso   1.000  O
  Ir22     1.0000 0.82716  0.59694  0.59095  Biso   1.000  Ir
  O66      1.0000 0.98147  0.84694  0.59095  Biso   1.000  O
  O67      1.0000 0.50000  0.01074  0.60542  Biso   1.000  O
  O68      1.0000 0.15430  0.51075  0.60543  Biso   1.000  O
  O69      1.0000 0.65430  0.65696  0.61834  Biso   1.000  O
  O70      1.0000 0.00000  0.15697  0.61834  Biso   1.000  O
