data_image0
_cell_length_a       4.88305
_cell_length_b       5.1456
_cell_length_c       35.4742
_cell_angle_alpha    90
_cell_angle_beta     90
_cell_angle_gamma    61.674

loop_
  _atom_site_label
  _atom_site_occupancy
  _atom_site_fract_x
  _atom_site_fract_y
  _atom_site_fract_z
  _atom_site_thermal_displace_type
  _atom_site_B_iso_or_equiv
  _atom_site_type_symbol
  O1       1.0000 0.87320  0.90794  0.22552  Biso   1.000  O
  Ir1      1.0000 0.08925  0.13013  0.23636  Biso   1.000  Ir
  O2       1.0000 0.30530  0.35233  0.24720  Biso   1.000  O
  O3       1.0000 0.40485  0.80749  0.26468  Biso   1.000  O
  O4       1.0000 0.85014  0.26265  0.28216  Biso   1.000  O
  Ir2      1.0000 0.41188  0.48485  0.29300  Biso   1.000  Ir
  O5       1.0000 0.97364  0.70704  0.30385  Biso   1.000  O
  O6       1.0000 0.41889  0.16221  0.32133  Biso   1.000  O
  O7       1.0000 0.51847  0.61738  0.33881  Biso   1.000  O
  Ir3      1.0000 0.73452  0.83958  0.34965  Biso   1.000  Ir
  O8       1.0000 0.95058  0.06177  0.36049  Biso   1.000  O
  O9       1.0000 0.05013  0.51694  0.37797  Biso   1.000  O
  O10      1.0000 0.49541  0.97210  0.39545  Biso   1.000  O
  Ir4      1.0000 0.05716  0.19430  0.40629  Biso   1.000  Ir
  O11      1.0000 0.61892  0.41649  0.41714  Biso   1.000  O
  O12      1.0000 0.06417  0.87166  0.43462  Biso   1.000  O
  O13      1.0000 0.16375  0.32683  0.45210  Biso   1.000  O
  Ir5      1.0000 0.37980  0.54902  0.46294  Biso   1.000  Ir
  O14      1.0000 0.59586  0.77122  0.47378  Biso   1.000  O
  O15      1.0000 0.69541  0.22638  0.49126  Biso   1.000  O
  O16      1.0000 0.14069  0.68155  0.50874  Biso   1.000  O
  Ir6      1.0000 0.70244  0.90375  0.51958  Biso   1.000  Ir
  O17      1.0000 0.26420  0.12594  0.53043  Biso   1.000  O
  O18      1.0000 0.70945  0.58111  0.54790  Biso   1.000  O
  O19      1.0000 0.80903  0.03628  0.56538  Biso   1.000  O
  Ir7      1.0000 0.02508  0.25847  0.57623  Biso   1.000  Ir
  O20      1.0000 0.24113  0.48067  0.58707  Biso   1.000  O
  O21      1.0000 0.34068  0.93583  0.60455  Biso   1.000  O
  O22      1.0000 0.78597  0.39099  0.62203  Biso   1.000  O
  Ir8      1.0000 0.34771  0.61319  0.63287  Biso   1.000  Ir
  O23      1.0000 0.90947  0.83538  0.64371  Biso   1.000  O
  O24      1.0000 0.35472  0.29055  0.66119  Biso   1.000  O
  O25      1.0000 0.45430  0.74572  0.67867  Biso   1.000  O
  Ir9      1.0000 0.67035  0.96792  0.68952  Biso   1.000  Ir
  O26      1.0000 0.88641  0.19011  0.70036  Biso   1.000  O
  O27      1.0000 0.98596  0.64528  0.71784  Biso   1.000  O
  O28      1.0000 0.43124  0.10044  0.73532  Biso   1.000  O
  Ir10     1.0000 0.99299  0.32264  0.74616  Biso   1.000  Ir
  O29      1.0000 0.55475  0.54483  0.75700  Biso   1.000  O
  O30      1.0000 0.00000  0.00000  0.77448  Biso   1.000  O
