data_image0
_cell_length_a       8.61194
_cell_length_b       5.1456
_cell_length_c       35.4742
_cell_angle_alpha    90
_cell_angle_beta     90
_cell_angle_gamma    93.4064

_symmetry_space_group_name_H-M    "P 1"
_symmetry_int_tables_number       1

loop_
  _symmetry_equiv_pos_as_xyz
  'x, y, z'

loop_
  _atom_site_label
  _atom_site_occupancy
  _atom_site_fract_x
  _atom_site_fract_y
  _atom_site_fract_z
  _atom_site_thermal_displace_type
  _atom_site_B_iso_or_equiv
  _atom_site_type_symbol
  O1       1.0000 0.60617  0.79868  0.26468  Biso   1.000  O
  O2       1.0000 0.10617  0.29868  0.26468  Biso   1.000  O
  O3       1.0000 0.55639  0.29374  0.28216  Biso   1.000  O
  O4       1.0000 0.05639  0.79374  0.28216  Biso   1.000  O
  Ir1      1.0000 0.44836  0.96352  0.29300  Biso   1.000  Ir
  Ir2      1.0000 0.94837  0.46352  0.29300  Biso   1.000  Ir
  O5       1.0000 0.84034  0.13330  0.30385  Biso   1.000  O
  O6       1.0000 0.34034  0.63330  0.30385  Biso   1.000  O
  O7       1.0000 0.29055  0.12834  0.32133  Biso   1.000  O
  O8       1.0000 0.79055  0.62834  0.32133  Biso   1.000  O
  O9       1.0000 0.56792  0.95054  0.33881  Biso   1.000  O
  O10      1.0000 0.06793  0.45054  0.33881  Biso   1.000  O
  Ir3      1.0000 0.78705  0.94747  0.34965  Biso   1.000  Ir
  Ir4      1.0000 0.28705  0.44747  0.34965  Biso   1.000  Ir
  O11      1.0000 0.50618  0.44440  0.36049  Biso   1.000  O
  O12      1.0000 0.00618  0.94441  0.36049  Biso   1.000  O
  O13      1.0000 0.28353  0.76660  0.37797  Biso   1.000  O
  O14      1.0000 0.78353  0.26660  0.37797  Biso   1.000  O
  O15      1.0000 0.73375  0.76165  0.39545  Biso   1.000  O
  O16      1.0000 0.23375  0.26165  0.39545  Biso   1.000  O
  Ir5      1.0000 0.12573  0.93143  0.40629  Biso   1.000  Ir
  Ir6      1.0000 0.62573  0.43143  0.40629  Biso   1.000  Ir
  O17      1.0000 0.51770  0.10122  0.41714  Biso   1.000  O
  O18      1.0000 0.01770  0.60122  0.41714  Biso   1.000  O
  O19      1.0000 0.46791  0.59625  0.43462  Biso   1.000  O
  O20      1.0000 0.96791  0.09625  0.43462  Biso   1.000  O
  O21      1.0000 0.24529  0.91846  0.45210  Biso   1.000  O
  O22      1.0000 0.74529  0.41846  0.45210  Biso   1.000  O
  Ir7      1.0000 0.46441  0.91539  0.46294  Biso   1.000  Ir
  Ir8      1.0000 0.96441  0.41539  0.46294  Biso   1.000  Ir
  O23      1.0000 0.68354  0.91232  0.47378  Biso   1.000  O
  O24      1.0000 0.18354  0.41232  0.47378  Biso   1.000  O
  O25      1.0000 0.46089  0.23452  0.49126  Biso   1.000  O
  O26      1.0000 0.96090  0.73452  0.49126  Biso   1.000  O
  O27      1.0000 0.41112  0.72957  0.50874  Biso   1.000  O
  O28      1.0000 0.91112  0.22957  0.50874  Biso   1.000  O
  Ir9      1.0000 0.80310  0.89934  0.51958  Biso   1.000  Ir
  Ir10     1.0000 0.30309  0.39934  0.51958  Biso   1.000  Ir
  O29      1.0000 0.19507  0.06913  0.53043  Biso   1.000  O
  O30      1.0000 0.69507  0.56913  0.53043  Biso   1.000  O
  O31      1.0000 0.64528  0.06417  0.54790  Biso   1.000  O
  O32      1.0000 0.14528  0.56417  0.54790  Biso   1.000  O
  O33      1.0000 0.42266  0.38638  0.56538  Biso   1.000  O
  O34      1.0000 0.92266  0.88638  0.56538  Biso   1.000  O
  Ir11     1.0000 0.14178  0.88331  0.57623  Biso   1.000  Ir
  Ir12     1.0000 0.64177  0.38331  0.57623  Biso   1.000  Ir
  O35      1.0000 0.36090  0.88023  0.58707  Biso   1.000  O
  O36      1.0000 0.86090  0.38023  0.58707  Biso   1.000  O
  O37      1.0000 0.63825  0.70242  0.60455  Biso   1.000  O
  O38      1.0000 0.13826  0.20242  0.60455  Biso   1.000  O
  O39      1.0000 0.58848  0.19749  0.62203  Biso   1.000  O
  O40      1.0000 0.08848  0.69749  0.62203  Biso   1.000  O
  Ir13     1.0000 0.48045  0.86726  0.63287  Biso   1.000  Ir
  Ir14     1.0000 0.98045  0.36726  0.63287  Biso   1.000  Ir
  O41      1.0000 0.87243  0.03705  0.64371  Biso   1.000  O
  O42      1.0000 0.37243  0.53704  0.64371  Biso   1.000  O
  O43      1.0000 0.32264  0.03209  0.66119  Biso   1.000  O
  O44      1.0000 0.82264  0.53209  0.66119  Biso   1.000  O
  O45      1.0000 0.60001  0.85429  0.67867  Biso   1.000  O
  O46      1.0000 0.10001  0.35429  0.67867  Biso   1.000  O
  Ir15     1.0000 0.81913  0.85122  0.68952  Biso   1.000  Ir
  Ir16     1.0000 0.31913  0.35122  0.68952  Biso   1.000  Ir
  O47      1.0000 0.53826  0.34815  0.70036  Biso   1.000  O
  O48      1.0000 0.03826  0.84815  0.70036  Biso   1.000  O
  O49      1.0000 0.81562  0.17034  0.71784  Biso   1.000  O
  O50      1.0000 0.31562  0.67034  0.71784  Biso   1.000  O
  O51      1.0000 0.26584  0.16540  0.73532  Biso   1.000  O
  O52      1.0000 0.76584  0.66540  0.73532  Biso   1.000  O
