data_image0
_cell_length_a       4.88305
_cell_length_b       5.1456
_cell_length_c       22.2685
_cell_angle_alpha    90
_cell_angle_beta     90
_cell_angle_gamma    61.674

_symmetry_space_group_name_H-M    "P 1"
_symmetry_int_tables_number       1

loop_
  _symmetry_equiv_pos_as_xyz
  'x, y, z'

loop_
  _atom_site_label
  _atom_site_occupancy
  _atom_site_fract_x
  _atom_site_fract_y
  _atom_site_fract_z
  _atom_site_thermal_displace_type
  _atom_site_B_iso_or_equiv
  _atom_site_type_symbol
  O1       1.0000 0.56198  0.83897  0.33680  Biso   1.000  O
  O2       1.0000 0.66153  0.29413  0.36465  Biso   1.000  O
  O3       1.0000 0.10682  0.74930  0.39248  Biso   1.000  O
  Ir1      1.0000 0.66856  0.97149  0.40978  Biso   1.000  Ir
  O4       1.0000 0.23032  0.19368  0.42703  Biso   1.000  O
  O5       1.0000 0.67557  0.64885  0.45491  Biso   1.000  O
  O6       1.0000 0.77515  0.10402  0.48271  Biso   1.000  O
  Ir2      1.0000 0.99120  0.32622  0.50001  Biso   1.000  Ir
  O7       1.0000 0.20726  0.54841  0.51726  Biso   1.000  O
  O8       1.0000 0.30681  0.00358  0.54514  Biso   1.000  O
  O9       1.0000 0.75209  0.45874  0.57297  Biso   1.000  O
  Ir3      1.0000 0.31384  0.68094  0.59024  Biso   1.000  Ir
  O10      1.0000 0.87560  0.90313  0.60749  Biso   1.000  O
  O11      1.0000 0.32085  0.35830  0.63537  Biso   1.000  O
  O12      1.0000 0.42043  0.81347  0.66320  Biso   1.000  O
