data_image0
_cell_length_a       4.88305
_cell_length_b       5.1456
_cell_length_c       30.3068
_cell_angle_alpha    90
_cell_angle_beta     90
_cell_angle_gamma    61.674

_symmetry_space_group_name_H-M    "P 1"
_symmetry_int_tables_number       1

loop_
  _symmetry_equiv_pos_as_xyz
  'x, y, z'

loop_
  _atom_site_label
  _atom_site_occupancy
  _atom_site_fract_x
  _atom_site_fract_y
  _atom_site_fract_z
  _atom_site_thermal_displace_type
  _atom_site_B_iso_or_equiv
  _atom_site_type_symbol
  O1       1.0000 0.91671  0.12952  0.24747  Biso   1.000  O
  O2       1.0000 0.01626  0.58468  0.26795  Biso   1.000  O
  O3       1.0000 0.46154  0.03985  0.28840  Biso   1.000  O
  Ir1      1.0000 0.02329  0.26205  0.30109  Biso   1.000  Ir
  O4       1.0000 0.58505  0.48424  0.31377  Biso   1.000  O
  O5       1.0000 0.03030  0.93941  0.33425  Biso   1.000  O
  O6       1.0000 0.12988  0.39458  0.35470  Biso   1.000  O
  Ir2      1.0000 0.34593  0.61677  0.36741  Biso   1.000  Ir
  O7       1.0000 0.56198  0.83897  0.38009  Biso   1.000  O
  O8       1.0000 0.66153  0.29413  0.40055  Biso   1.000  O
  O9       1.0000 0.10682  0.74930  0.42100  Biso   1.000  O
  Ir3      1.0000 0.66856  0.97149  0.43371  Biso   1.000  Ir
  O10      1.0000 0.23032  0.19368  0.44638  Biso   1.000  O
  O11      1.0000 0.67557  0.64885  0.46687  Biso   1.000  O
  O12      1.0000 0.77515  0.10402  0.48730  Biso   1.000  O
  Ir4      1.0000 0.99120  0.32622  0.50001  Biso   1.000  Ir
  O13      1.0000 0.20726  0.54841  0.51268  Biso   1.000  O
  O14      1.0000 0.30681  0.00358  0.53317  Biso   1.000  O
  O15      1.0000 0.75209  0.45874  0.55362  Biso   1.000  O
  Ir5      1.0000 0.31384  0.68094  0.56631  Biso   1.000  Ir
  O16      1.0000 0.87560  0.90313  0.57898  Biso   1.000  O
  O17      1.0000 0.32085  0.35830  0.59947  Biso   1.000  O
  O18      1.0000 0.42043  0.81347  0.61991  Biso   1.000  O
  Ir6      1.0000 0.63648  0.03566  0.63263  Biso   1.000  Ir
  O19      1.0000 0.85254  0.25786  0.64530  Biso   1.000  O
  O20      1.0000 0.95209  0.71302  0.66577  Biso   1.000  O
  O21      1.0000 0.39737  0.16819  0.68621  Biso   1.000  O
  Ir7      1.0000 0.95912  0.39039  0.69892  Biso   1.000  Ir
  O22      1.0000 0.52088  0.61258  0.71160  Biso   1.000  O
  O23      1.0000 0.96613  0.06775  0.73208  Biso   1.000  O
  O24      1.0000 0.06571  0.52292  0.75253  Biso   1.000  O
