data_image0
_cell_length_a       4.88305
_cell_length_b       5.1456
_cell_length_c       46.3823
_cell_angle_alpha    90
_cell_angle_beta     90
_cell_angle_gamma    61.674

_symmetry_space_group_name_H-M    "P 1"
_symmetry_int_tables_number       1

loop_
  _symmetry_equiv_pos_as_xyz
  'x, y, z'

loop_
  _atom_site_label
  _atom_site_occupancy
  _atom_site_fract_x
  _atom_site_fract_y
  _atom_site_fract_z
  _atom_site_thermal_displace_type
  _atom_site_B_iso_or_equiv
  _atom_site_type_symbol
  O1       1.0000 0.62615  0.71063  0.16170  Biso   1.000  O
  O2       1.0000 0.72570  0.16579  0.17507  Biso   1.000  O
  O3       1.0000 0.17099  0.62096  0.18843  Biso   1.000  O
  Ir1      1.0000 0.73273  0.84315  0.19674  Biso   1.000  Ir
  O4       1.0000 0.29449  0.06534  0.20504  Biso   1.000  O
  O5       1.0000 0.73974  0.52051  0.21841  Biso   1.000  O
  O6       1.0000 0.83932  0.97568  0.23177  Biso   1.000  O
  Ir2      1.0000 0.05537  0.19788  0.24006  Biso   1.000  Ir
  O7       1.0000 0.27143  0.42007  0.24834  Biso   1.000  O
  O8       1.0000 0.37098  0.87524  0.26173  Biso   1.000  O
  O9       1.0000 0.81626  0.33040  0.27509  Biso   1.000  O
  Ir3      1.0000 0.37801  0.55260  0.28339  Biso   1.000  Ir
  O10      1.0000 0.93977  0.77479  0.29167  Biso   1.000  O
  O11      1.0000 0.38502  0.22996  0.30505  Biso   1.000  O
  O12      1.0000 0.48460  0.68513  0.31841  Biso   1.000  O
  Ir4      1.0000 0.70065  0.90732  0.32671  Biso   1.000  Ir
  O13      1.0000 0.91671  0.12952  0.33499  Biso   1.000  O
  O14      1.0000 0.01626  0.58468  0.34838  Biso   1.000  O
  O15      1.0000 0.46154  0.03985  0.36174  Biso   1.000  O
  Ir5      1.0000 0.02329  0.26205  0.37003  Biso   1.000  Ir
  O16      1.0000 0.58505  0.48424  0.37831  Biso   1.000  O
  O17      1.0000 0.03030  0.93941  0.39170  Biso   1.000  O
  O18      1.0000 0.12988  0.39458  0.40506  Biso   1.000  O
  Ir6      1.0000 0.34593  0.61677  0.41337  Biso   1.000  Ir
  O19      1.0000 0.56198  0.83897  0.42165  Biso   1.000  O
  O20      1.0000 0.66153  0.29413  0.43502  Biso   1.000  O
  O21      1.0000 0.10682  0.74930  0.44838  Biso   1.000  O
  Ir7      1.0000 0.66856  0.97149  0.45669  Biso   1.000  Ir
  O22      1.0000 0.23032  0.19368  0.46497  Biso   1.000  O
  O23      1.0000 0.67557  0.64885  0.47835  Biso   1.000  O
  O24      1.0000 0.77515  0.10402  0.49170  Biso   1.000  O
  Ir8      1.0000 0.99120  0.32622  0.50001  Biso   1.000  Ir
  O25      1.0000 0.20726  0.54841  0.50829  Biso   1.000  O
  O26      1.0000 0.30681  0.00358  0.52167  Biso   1.000  O
  O27      1.0000 0.75209  0.45874  0.53503  Biso   1.000  O
  Ir9      1.0000 0.31384  0.68094  0.54333  Biso   1.000  Ir
  O28      1.0000 0.87560  0.90313  0.55161  Biso   1.000  O
  O29      1.0000 0.32085  0.35830  0.56499  Biso   1.000  O
  O30      1.0000 0.42043  0.81347  0.57835  Biso   1.000  O
  Ir10     1.0000 0.63648  0.03566  0.58666  Biso   1.000  Ir
  O31      1.0000 0.85254  0.25786  0.59494  Biso   1.000  O
  O32      1.0000 0.95209  0.71302  0.60831  Biso   1.000  O
  O33      1.0000 0.39737  0.16819  0.62167  Biso   1.000  O
  Ir11     1.0000 0.95912  0.39039  0.62998  Biso   1.000  Ir
  O34      1.0000 0.52088  0.61258  0.63826  Biso   1.000  O
  O35      1.0000 0.96613  0.06775  0.65165  Biso   1.000  O
  O36      1.0000 0.06571  0.52292  0.66501  Biso   1.000  O
  Ir12     1.0000 0.28176  0.74511  0.67330  Biso   1.000  Ir
  O37      1.0000 0.49781  0.96731  0.68158  Biso   1.000  O
  O38      1.0000 0.59736  0.42247  0.69494  Biso   1.000  O
  O39      1.0000 0.04265  0.87764  0.70833  Biso   1.000  O
  Ir13     1.0000 0.60439  0.09983  0.71661  Biso   1.000  Ir
  O40      1.0000 0.16615  0.32202  0.72491  Biso   1.000  O
  O41      1.0000 0.61140  0.77719  0.73826  Biso   1.000  O
  O42      1.0000 0.71098  0.23236  0.75165  Biso   1.000  O
  Ir14     1.0000 0.92703  0.45456  0.75993  Biso   1.000  Ir
  O43      1.0000 0.14309  0.67675  0.76823  Biso   1.000  O
  O44      1.0000 0.24264  0.13192  0.78159  Biso   1.000  O
  O45      1.0000 0.68792  0.58708  0.79498  Biso   1.000  O
  Ir15     1.0000 0.24967  0.80928  0.80325  Biso   1.000  Ir
  O46      1.0000 0.81143  0.03147  0.81155  Biso   1.000  O
  O47      1.0000 0.25668  0.48664  0.82492  Biso   1.000  O
  O48      1.0000 0.35626  0.94181  0.83830  Biso   1.000  O
