data_image0
_cell_length_a       4.88305
_cell_length_b       5.1456
_cell_length_c       62.4573
_cell_angle_alpha    90
_cell_angle_beta     90
_cell_angle_gamma    61.674

_symmetry_space_group_name_H-M    "P 1"
_symmetry_int_tables_number       1

loop_
  _symmetry_equiv_pos_as_xyz
  'x, y, z'

loop_
  _atom_site_label
  _atom_site_occupancy
  _atom_site_fract_x
  _atom_site_fract_y
  _atom_site_fract_z
  _atom_site_thermal_displace_type
  _atom_site_B_iso_or_equiv
  _atom_site_type_symbol
  O1       1.0000 0.33560  0.29173  0.12008  Biso   1.000  O
  O2       1.0000 0.43515  0.74690  0.13000  Biso   1.000  O
  O3       1.0000 0.88043  0.20206  0.13994  Biso   1.000  O
  Ir1      1.0000 0.44218  0.42426  0.14609  Biso   1.000  Ir
  O4       1.0000 0.00394  0.64645  0.15226  Biso   1.000  O
  O5       1.0000 0.44919  0.10162  0.16218  Biso   1.000  O
  O6       1.0000 0.54877  0.55679  0.17210  Biso   1.000  O
  Ir2      1.0000 0.76482  0.77898  0.17826  Biso   1.000  Ir
  O7       1.0000 0.98088  0.00118  0.18443  Biso   1.000  O
  O8       1.0000 0.08043  0.45634  0.19435  Biso   1.000  O
  O9       1.0000 0.52571  0.91151  0.20428  Biso   1.000  O
  Ir3      1.0000 0.08746  0.13371  0.21044  Biso   1.000  Ir
  O10      1.0000 0.64922  0.35590  0.21660  Biso   1.000  O
  O11      1.0000 0.09447  0.81107  0.22653  Biso   1.000  O
  O12      1.0000 0.19405  0.26624  0.23645  Biso   1.000  O
  Ir4      1.0000 0.41010  0.48843  0.24262  Biso   1.000  Ir
  O13      1.0000 0.62615  0.71063  0.24877  Biso   1.000  O
  O14      1.0000 0.72570  0.16579  0.25870  Biso   1.000  O
  O15      1.0000 0.17099  0.62096  0.26862  Biso   1.000  O
  Ir5      1.0000 0.73273  0.84315  0.27479  Biso   1.000  Ir
  O16      1.0000 0.29449  0.06534  0.28095  Biso   1.000  O
  O17      1.0000 0.73974  0.52051  0.29088  Biso   1.000  O
  O18      1.0000 0.83932  0.97568  0.30080  Biso   1.000  O
  Ir6      1.0000 0.05537  0.19788  0.30696  Biso   1.000  Ir
  O19      1.0000 0.27143  0.42007  0.31311  Biso   1.000  O
  O20      1.0000 0.37098  0.87524  0.32305  Biso   1.000  O
  O21      1.0000 0.81626  0.33040  0.33297  Biso   1.000  O
  Ir7      1.0000 0.37801  0.55260  0.33914  Biso   1.000  Ir
  O22      1.0000 0.93977  0.77479  0.34529  Biso   1.000  O
  O23      1.0000 0.38502  0.22996  0.35522  Biso   1.000  O
  O24      1.0000 0.48460  0.68513  0.36514  Biso   1.000  O
  Ir8      1.0000 0.70065  0.90732  0.37131  Biso   1.000  Ir
  O25      1.0000 0.91671  0.12952  0.37746  Biso   1.000  O
  O26      1.0000 0.01626  0.58468  0.38740  Biso   1.000  O
  O27      1.0000 0.46154  0.03985  0.39732  Biso   1.000  O
  Ir9      1.0000 0.02329  0.26205  0.40348  Biso   1.000  Ir
  O28      1.0000 0.58505  0.48424  0.40963  Biso   1.000  O
  O29      1.0000 0.03030  0.93941  0.41957  Biso   1.000  O
  O30      1.0000 0.12988  0.39458  0.42949  Biso   1.000  O
  Ir10     1.0000 0.34593  0.61677  0.43566  Biso   1.000  Ir
  O31      1.0000 0.56198  0.83897  0.44181  Biso   1.000  O
  O32      1.0000 0.66153  0.29413  0.45174  Biso   1.000  O
  O33      1.0000 0.10682  0.74930  0.46166  Biso   1.000  O
  Ir11     1.0000 0.66856  0.97149  0.46783  Biso   1.000  Ir
  O34      1.0000 0.23032  0.19368  0.47398  Biso   1.000  O
  O35      1.0000 0.67557  0.64885  0.48392  Biso   1.000  O
  O36      1.0000 0.77515  0.10402  0.49383  Biso   1.000  O
  Ir12     1.0000 0.99120  0.32622  0.50000  Biso   1.000  Ir
  O37      1.0000 0.20726  0.54841  0.50615  Biso   1.000  O
  O38      1.0000 0.30681  0.00358  0.51609  Biso   1.000  O
  O39      1.0000 0.75209  0.45874  0.52601  Biso   1.000  O
  Ir13     1.0000 0.31384  0.68094  0.53217  Biso   1.000  Ir
  O40      1.0000 0.87560  0.90313  0.53832  Biso   1.000  O
  O41      1.0000 0.32085  0.35830  0.54826  Biso   1.000  O
  O42      1.0000 0.42043  0.81347  0.55818  Biso   1.000  O
  Ir14     1.0000 0.63648  0.03566  0.56435  Biso   1.000  Ir
  O43      1.0000 0.85254  0.25786  0.57050  Biso   1.000  O
  O44      1.0000 0.95209  0.71302  0.58043  Biso   1.000  O
  O45      1.0000 0.39737  0.16819  0.59035  Biso   1.000  O
  Ir15     1.0000 0.95912  0.39039  0.59652  Biso   1.000  Ir
  O46      1.0000 0.52088  0.61258  0.60267  Biso   1.000  O
  O47      1.0000 0.96613  0.06775  0.61261  Biso   1.000  O
  O48      1.0000 0.06571  0.52292  0.62253  Biso   1.000  O
  Ir16     1.0000 0.28176  0.74511  0.62869  Biso   1.000  Ir
  O49      1.0000 0.49781  0.96731  0.63484  Biso   1.000  O
  O50      1.0000 0.59736  0.42247  0.64476  Biso   1.000  O
  O51      1.0000 0.04265  0.87764  0.65470  Biso   1.000  O
  Ir17     1.0000 0.60439  0.09983  0.66085  Biso   1.000  Ir
  O52      1.0000 0.16615  0.32202  0.66702  Biso   1.000  O
  O53      1.0000 0.61140  0.77719  0.67693  Biso   1.000  O
  O54      1.0000 0.71098  0.23236  0.68688  Biso   1.000  O
  Ir18     1.0000 0.92703  0.45456  0.69302  Biso   1.000  Ir
  O55      1.0000 0.14309  0.67675  0.69919  Biso   1.000  O
  O56      1.0000 0.24264  0.13192  0.70911  Biso   1.000  O
  O57      1.0000 0.68792  0.58708  0.71905  Biso   1.000  O
  Ir19     1.0000 0.24967  0.80928  0.72520  Biso   1.000  Ir
  O58      1.0000 0.81143  0.03147  0.73136  Biso   1.000  O
  O59      1.0000 0.25668  0.48664  0.74129  Biso   1.000  O
  O60      1.0000 0.35626  0.94181  0.75123  Biso   1.000  O
  Ir20     1.0000 0.57231  0.16400  0.75738  Biso   1.000  Ir
  O61      1.0000 0.78837  0.38620  0.76353  Biso   1.000  O
  O62      1.0000 0.88792  0.84136  0.77346  Biso   1.000  O
  O63      1.0000 0.33320  0.29653  0.78340  Biso   1.000  O
  Ir21     1.0000 0.89495  0.51873  0.78955  Biso   1.000  Ir
  O64      1.0000 0.45671  0.74092  0.79571  Biso   1.000  O
  O65      1.0000 0.90196  0.19609  0.80564  Biso   1.000  O
  O66      1.0000 0.00154  0.65126  0.81557  Biso   1.000  O
  Ir22     1.0000 0.21759  0.87345  0.82172  Biso   1.000  Ir
  O67      1.0000 0.43364  0.09565  0.82788  Biso   1.000  O
  O68      1.0000 0.53319  0.55081  0.83781  Biso   1.000  O
  O69      1.0000 0.97848  0.00597  0.84775  Biso   1.000  O
  Ir23     1.0000 0.54022  0.22817  0.85390  Biso   1.000  Ir
  O70      1.0000 0.10198  0.45036  0.86006  Biso   1.000  O
  O71      1.0000 0.54723  0.90553  0.86998  Biso   1.000  O
  O72      1.0000 0.64681  0.36070  0.87992  Biso   1.000  O
