data_image0
_cell_length_a       4.69635
_cell_length_b       8.72335
_cell_length_c       57.4202
_cell_angle_alpha    90
_cell_angle_beta     90
_cell_angle_gamma    90

_symmetry_space_group_name_H-M    "P 1"
_symmetry_int_tables_number       1

loop_
  _symmetry_equiv_pos_as_xyz
  'x, y, z'

loop_
  _atom_site_label
  _atom_site_occupancy
  _atom_site_fract_x
  _atom_site_fract_y
  _atom_site_fract_z
  _atom_site_thermal_displace_type
  _atom_site_B_iso_or_equiv
  _atom_site_type_symbol
  O1       1.0000 0.39273  0.32474  0.48385  Biso   1.000  O
  O2       1.0000 0.39273  0.67526  0.48385  Biso   1.000  O
  O3       1.0000 0.89272  0.17526  0.49000  Biso   1.000  O
  O4       1.0000 0.89272  0.82474  0.49000  Biso   1.000  O
  O5       1.0000 0.86068  0.50000  0.49262  Biso   1.000  O
  Ir1      1.0000 0.68033  0.32466  0.50737  Biso   1.000  Ir
  Ir2      1.0000 0.68033  0.67535  0.50737  Biso   1.000  Ir
  O6       1.0000 0.49998  0.50000  0.52213  Biso   1.000  O
  O7       1.0000 0.46794  0.17526  0.52475  Biso   1.000  O
  O8       1.0000 0.46794  0.82474  0.52475  Biso   1.000  O
  O9       1.0000 0.96794  0.32474  0.53090  Biso   1.000  O
  O10      1.0000 0.96794  0.67526  0.53090  Biso   1.000  O
