data_image0
_cell_length_a       8.61194
_cell_length_b       5.1456
_cell_length_c       27.6767
_cell_angle_alpha    90
_cell_angle_beta     90
_cell_angle_gamma    93.4064

_symmetry_space_group_name_H-M    "P 1"
_symmetry_int_tables_number       1

loop_
  _symmetry_equiv_pos_as_xyz
  'x, y, z'

loop_
  _atom_site_label
  _atom_site_occupancy
  _atom_site_fract_x
  _atom_site_fract_y
  _atom_site_fract_z
  _atom_site_thermal_displace_type
  _atom_site_B_iso_or_equiv
  _atom_site_type_symbol
  O1       1.0000 0.61912  0.78483  0.27099  Biso   1.000  O
  O2       1.0000 0.11912  0.28484  0.27099  Biso   1.000  O
  O3       1.0000 0.56935  0.27989  0.29339  Biso   1.000  O
  O4       1.0000 0.06935  0.77990  0.29339  Biso   1.000  O
  O5       1.0000 0.85329  0.11945  0.32119  Biso   1.000  O
  O6       1.0000 0.35329  0.61946  0.32119  Biso   1.000  O
  O7       1.0000 0.30350  0.11449  0.34360  Biso   1.000  O
  O8       1.0000 0.80350  0.61450  0.34360  Biso   1.000  O
  O9       1.0000 0.58087  0.93669  0.36600  Biso   1.000  O
  O10      1.0000 0.08088  0.43670  0.36600  Biso   1.000  O
  O11      1.0000 0.51913  0.43056  0.39379  Biso   1.000  O
  O12      1.0000 0.01914  0.93057  0.39379  Biso   1.000  O
  O13      1.0000 0.29648  0.75275  0.41619  Biso   1.000  O
  O14      1.0000 0.79648  0.25276  0.41619  Biso   1.000  O
  O15      1.0000 0.74670  0.74781  0.43860  Biso   1.000  O
  O16      1.0000 0.24670  0.24780  0.43860  Biso   1.000  O
  O17      1.0000 0.53065  0.08737  0.46640  Biso   1.000  O
  O18      1.0000 0.03065  0.58738  0.46640  Biso   1.000  O
  O19      1.0000 0.48087  0.58241  0.48880  Biso   1.000  O
  O20      1.0000 0.98087  0.08240  0.48880  Biso   1.000  O
  O21      1.0000 0.25857  0.90326  0.51123  Biso   1.000  O
  O22      1.0000 0.75873  0.40357  0.51117  Biso   1.000  O
  O23      1.0000 0.69661  0.90286  0.53985  Biso   1.000  O
  O24      1.0000 0.19600  0.40085  0.54016  Biso   1.000  O
  O25      1.0000 0.47125  0.22272  0.56067  Biso   1.000  O
  O26      1.0000 0.97183  0.71913  0.56126  Biso   1.000  O
  O27      1.0000 0.42419  0.71812  0.58393  Biso   1.000  O
  O28      1.0000 0.92201  0.21320  0.58328  Biso   1.000  O
  O29      1.0000 0.20609  0.05982  0.61175  Biso   1.000  O
  O30      1.0000 0.70794  0.55951  0.61161  Biso   1.000  O
  O31      1.0000 0.66103  0.05848  0.63409  Biso   1.000  O
  O32      1.0000 0.15933  0.55062  0.63474  Biso   1.000  O
  O33      1.0000 0.44467  0.36873  0.65452  Biso   1.000  O
  O34      1.0000 0.94639  0.87132  0.65391  Biso   1.000  O
  O35      1.0000 0.36620  0.83918  0.68166  Biso   1.000  O
  O36      1.0000 0.86277  0.34052  0.68320  Biso   1.000  O
  O37      1.0000 0.65391  0.68380  0.70320  Biso   1.000  O
  O38      1.0000 0.14982  0.17635  0.70800  Biso   1.000  O
  O39      1.0000 0.59171  0.17700  0.72842  Biso   1.000  O
  O40      1.0000 0.09302  0.68866  0.73079  Biso   1.000  O
  Ir1      1.0000 0.46131  0.94967  0.30728  Biso   1.000  Ir
  Ir2      1.0000 0.96133  0.44968  0.30728  Biso   1.000  Ir
  Ir3      1.0000 0.80001  0.93362  0.37989  Biso   1.000  Ir
  Ir4      1.0000 0.30001  0.43363  0.37989  Biso   1.000  Ir
  Ir5      1.0000 0.13868  0.91758  0.45249  Biso   1.000  Ir
  Ir6      1.0000 0.63868  0.41759  0.45249  Biso   1.000  Ir
  Ir7      1.0000 0.47797  0.90307  0.52535  Biso   1.000  Ir
  Ir8      1.0000 0.97769  0.40178  0.52548  Biso   1.000  Ir
  Ir9      1.0000 0.81506  0.88232  0.59884  Biso   1.000  Ir
  Ir10     1.0000 0.31619  0.38907  0.59883  Biso   1.000  Ir
  Ir11     1.0000 0.16753  0.88391  0.67414  Biso   1.000  Ir
  Ir12     1.0000 0.66086  0.36698  0.67907  Biso   1.000  Ir
  H1       1.0000 0.09373  0.80969  0.75815  Biso   1.000  H
