data_image0
_cell_length_a       9.3927
_cell_length_b       8.72335
_cell_length_c       27.0937
_cell_angle_alpha    90
_cell_angle_beta     90
_cell_angle_gamma    90

_symmetry_space_group_name_H-M    "P 1"
_symmetry_int_tables_number       1

loop_
  _symmetry_equiv_pos_as_xyz
  'x, y, z'

loop_
  _atom_site_label
  _atom_site_occupancy
  _atom_site_fract_x
  _atom_site_fract_y
  _atom_site_fract_z
  _atom_site_thermal_displace_type
  _atom_site_B_iso_or_equiv
  _atom_site_type_symbol
  O1       1.0000 0.19637  0.32474  0.27682  Biso   1.000  O
  O2       1.0000 0.19637  0.67526  0.27682  Biso   1.000  O
  O3       1.0000 0.44636  0.17526  0.28985  Biso   1.000  O
  O4       1.0000 0.44636  0.82474  0.28985  Biso   1.000  O
  O5       1.0000 0.43034  0.50000  0.29540  Biso   1.000  O
  O6       1.0000 0.24999  0.50000  0.35792  Biso   1.000  O
  O7       1.0000 0.23397  0.17526  0.36348  Biso   1.000  O
  O8       1.0000 0.23397  0.82474  0.36348  Biso   1.000  O
  O9       1.0000 0.48397  0.32474  0.37652  Biso   1.000  O
  O10      1.0000 0.48397  0.67526  0.37652  Biso   1.000  O
  O11      1.0000 0.50000  0.00000  0.38207  Biso   1.000  O
  O12      1.0000 0.18034  0.00000  0.44458  Biso   1.000  O
  O13      1.0000 0.19637  0.32474  0.45015  Biso   1.000  O
  O14      1.0000 0.19637  0.67526  0.45015  Biso   1.000  O
  O15      1.0000 0.44636  0.17526  0.46318  Biso   1.000  O
  O16      1.0000 0.44636  0.82474  0.46318  Biso   1.000  O
  O17      1.0000 0.43034  0.50000  0.46873  Biso   1.000  O
  O18      1.0000 0.24999  0.50000  0.53127  Biso   1.000  O
  O19      1.0000 0.23397  0.17526  0.53682  Biso   1.000  O
  O20      1.0000 0.23397  0.82474  0.53682  Biso   1.000  O
  O21      1.0000 0.48384  0.32408  0.55012  Biso   1.000  O
  O22      1.0000 0.48306  0.67636  0.55073  Biso   1.000  O
  O23      1.0000 0.49918  0.99900  0.55797  Biso   1.000  O
  O24      1.0000 0.18372  0.99854  0.61757  Biso   1.000  O
  O25      1.0000 0.19208  0.32923  0.62343  Biso   1.000  O
  O26      1.0000 0.20498  0.67631  0.62120  Biso   1.000  O
  O27      1.0000 0.44622  0.18289  0.63756  Biso   1.000  O
  O28      1.0000 0.45629  0.82208  0.64038  Biso   1.000  O
  O29      1.0000 0.42414  0.50461  0.64243  Biso   1.000  O
  O30      1.0000 0.25128  0.50246  0.70725  Biso   1.000  O
  O31      1.0000 0.22751  0.20036  0.71217  Biso   1.000  O
  O32      1.0000 0.23005  0.80840  0.70503  Biso   1.000  O
  O33      1.0000 0.48912  0.32824  0.72184  Biso   1.000  O
  O34      1.0000 0.48689  0.66727  0.72623  Biso   1.000  O
  O35      1.0000 0.69637  0.32474  0.27682  Biso   1.000  O
  O36      1.0000 0.69637  0.67526  0.27682  Biso   1.000  O
  O37      1.0000 0.94636  0.17526  0.28985  Biso   1.000  O
  O38      1.0000 0.94636  0.82474  0.28985  Biso   1.000  O
  O39      1.0000 0.93034  0.50000  0.29540  Biso   1.000  O
  O40      1.0000 0.74999  0.50000  0.35792  Biso   1.000  O
  O41      1.0000 0.73397  0.17526  0.36348  Biso   1.000  O
  O42      1.0000 0.73397  0.82474  0.36348  Biso   1.000  O
  O43      1.0000 0.98397  0.32474  0.37652  Biso   1.000  O
  O44      1.0000 0.98397  0.67526  0.37652  Biso   1.000  O
  O45      1.0000 0.00000  0.00000  0.38207  Biso   1.000  O
  O46      1.0000 0.68034  0.00000  0.44458  Biso   1.000  O
  O47      1.0000 0.69637  0.32474  0.45015  Biso   1.000  O
  O48      1.0000 0.69637  0.67526  0.45015  Biso   1.000  O
  O49      1.0000 0.94636  0.17526  0.46318  Biso   1.000  O
  O50      1.0000 0.94636  0.82474  0.46318  Biso   1.000  O
  O51      1.0000 0.93034  0.50000  0.46873  Biso   1.000  O
  O52      1.0000 0.74999  0.50000  0.53127  Biso   1.000  O
  O53      1.0000 0.73397  0.17526  0.53682  Biso   1.000  O
  O54      1.0000 0.73397  0.82474  0.53682  Biso   1.000  O
  O55      1.0000 0.98314  0.32249  0.55031  Biso   1.000  O
  O56      1.0000 0.98344  0.67584  0.55042  Biso   1.000  O
  O57      1.0000 0.99948  0.99510  0.55763  Biso   1.000  O
  O58      1.0000 0.68232  0.00142  0.61807  Biso   1.000  O
  O59      1.0000 0.70084  0.32406  0.62165  Biso   1.000  O
  O60      1.0000 0.70357  0.67511  0.62104  Biso   1.000  O
  O61      1.0000 0.95141  0.17371  0.63850  Biso   1.000  O
  O62      1.0000 0.95397  0.81832  0.63924  Biso   1.000  O
  O63      1.0000 0.91594  0.49561  0.63876  Biso   1.000  O
  O64      1.0000 0.74947  0.49528  0.70636  Biso   1.000  O
  O65      1.0000 0.73354  0.18372  0.70532  Biso   1.000  O
  O66      1.0000 0.72951  0.80659  0.70507  Biso   1.000  O
  O67      1.0000 0.98873  0.33835  0.72127  Biso   1.000  O
  O68      1.0000 0.98570  0.65495  0.72142  Biso   1.000  O
  Ir1      1.0000 0.34016  0.32466  0.32667  Biso   1.000  Ir
  Ir2      1.0000 0.34016  0.67535  0.32667  Biso   1.000  Ir
  Ir3      1.0000 0.09016  0.17534  0.41333  Biso   1.000  Ir
  Ir4      1.0000 0.09016  0.82466  0.41333  Biso   1.000  Ir
  Ir5      1.0000 0.34016  0.32466  0.50000  Biso   1.000  Ir
  Ir6      1.0000 0.34016  0.67535  0.50000  Biso   1.000  Ir
  Ir7      1.0000 0.09117  0.17340  0.58648  Biso   1.000  Ir
  Ir8      1.0000 0.09342  0.81950  0.58764  Biso   1.000  Ir
  Ir9      1.0000 0.33259  0.32092  0.67472  Biso   1.000  Ir
  Ir10     1.0000 0.35429  0.67619  0.67967  Biso   1.000  Ir
  Ir11     1.0000 0.84017  0.32466  0.32667  Biso   1.000  Ir
  Ir12     1.0000 0.84017  0.67535  0.32667  Biso   1.000  Ir
  Ir13     1.0000 0.59016  0.17534  0.41333  Biso   1.000  Ir
  Ir14     1.0000 0.59016  0.82466  0.41333  Biso   1.000  Ir
  Ir15     1.0000 0.84017  0.32466  0.50000  Biso   1.000  Ir
  Ir16     1.0000 0.84017  0.67535  0.50000  Biso   1.000  Ir
  Ir17     1.0000 0.59176  0.17810  0.58733  Biso   1.000  Ir
  Ir18     1.0000 0.59247  0.82320  0.58752  Biso   1.000  Ir
  Ir19     1.0000 0.84951  0.31785  0.67764  Biso   1.000  Ir
  Ir20     1.0000 0.84734  0.67172  0.67757  Biso   1.000  Ir
  H1       1.0000 0.49204  0.42846  0.73856  Biso   1.000  H
