data_179197-3835-5794-AlF3_F6Al2fixed\(1\1\0)\(3)
_audit_creation_date              2018-06-18
_audit_creation_method            'Materials Studio'
_symmetry_space_group_name_H-M    'P1'
_symmetry_Int_Tables_number       1
_symmetry_cell_setting            triclinic
loop_
_symmetry_equiv_pos_as_xyz
  x,y,z
_cell_length_a                    7.0938
_cell_length_b                    7.0938
_cell_length_c                    24.1505
_cell_angle_alpha                 90.0000
_cell_angle_beta                  90.0000
_cell_angle_gamma                 92.9993
loop_
_atom_site_label
_atom_site_type_symbol
_atom_site_fract_x
_atom_site_fract_y
_atom_site_fract_z
_atom_site_U_iso_or_equiv
_atom_site_adp_type
_atom_site_occupancy
Ir1    Ir    0.49127   0.32803   0.28028   0.01267  Uiso   1.00
Ir2    Ir    0.99127   0.82803   0.28028   0.01267  Uiso   1.00
Ir3    Ir    0.01614   0.30317   0.42676   0.01267  Uiso   1.00
Ir4    Ir    0.51614   0.80317   0.42676   0.01267  Uiso   1.00
Ir5    Ir    0.04100   0.77831   0.57324   0.01267  Uiso   1.00
Ir6    Ir    0.54100   0.27831   0.57324   0.01267  Uiso   1.00
Ir7    Ir    0.06586   0.25345   0.71972   0.01267  Uiso   1.00
Ir8    Ir    0.56586   0.75345   0.71972   0.01267  Uiso   1.00
Ir9    Ir    0.49127   0.82803   0.28028   0.01267  Uiso   1.00
Ir10   Ir    0.99127   0.32803   0.28028   0.01267  Uiso   1.00
Ir11   Ir    0.01614   0.80317   0.42676   0.01267  Uiso   1.00
Ir12   Ir    0.51614   0.30317   0.42676   0.01267  Uiso   1.00
Ir13   Ir    0.04100   0.27831   0.57324   0.01267  Uiso   1.00
Ir14   Ir    0.54100   0.77831   0.57324   0.01267  Uiso   1.00
Ir15   Ir    0.06586   0.75345   0.71972   0.01267  Uiso   1.00
Ir16   Ir    0.56586   0.25345   0.71972   0.01267  Uiso   1.00
O17    O     0.40169   0.76331   0.20703   0.01267  Uiso   1.00
O18    O     0.90169   0.26331   0.20703   0.01267  Uiso   1.00
O19    O     0.42655   0.23844   0.35352   0.01267  Uiso   1.00
O20    O     0.92655   0.73844   0.35352   0.01267  Uiso   1.00
O21    O     0.45141   0.71358   0.50000   0.01267  Uiso   1.00
O22    O     0.95141   0.21358   0.50000   0.01267  Uiso   1.00
O23    O     0.47627   0.18872   0.64648   0.01267  Uiso   1.00
O24    O     0.97627   0.68872   0.64648   0.01267  Uiso   1.00
O25    O     0.00113   0.16386   0.79297   0.01267  Uiso   1.00
O26    O     0.50113   0.66386   0.79297   0.01267  Uiso   1.00
O27    O     0.23744   0.25472   0.25768   0.01267  Uiso   1.00
O28    O     0.73744   0.75472   0.25768   0.01267  Uiso   1.00
O29    O     0.26230   0.72986   0.40416   0.01267  Uiso   1.00
O30    O     0.76230   0.22986   0.40416   0.01267  Uiso   1.00
O31    O     0.28716   0.20500   0.55064   0.01267  Uiso   1.00
O32    O     0.78716   0.70500   0.55064   0.01267  Uiso   1.00
O33    O     0.31202   0.68014   0.69712   0.01267  Uiso   1.00
O34    O     0.81202   0.18014   0.69712   0.01267  Uiso   1.00
O35    O     0.24511   0.90135   0.30288   0.01267  Uiso   1.00
O36    O     0.74511   0.40135   0.30288   0.01267  Uiso   1.00
O37    O     0.26997   0.37649   0.44936   0.01267  Uiso   1.00
O38    O     0.76997   0.87649   0.44936   0.01267  Uiso   1.00
O39    O     0.29483   0.85163   0.59585   0.01267  Uiso   1.00
O40    O     0.79483   0.35163   0.59585   0.01267  Uiso   1.00
O41    O     0.31969   0.32676   0.74233   0.01267  Uiso   1.00
O42    O     0.81969   0.82676   0.74233   0.01267  Uiso   1.00
O43    O     0.05599   0.91761   0.20703   0.01267  Uiso   1.00
O44    O     0.55599   0.41761   0.20703   0.01267  Uiso   1.00
O45    O     0.08085   0.39274   0.35352   0.01267  Uiso   1.00
O46    O     0.58085   0.89274   0.35352   0.01267  Uiso   1.00
O47    O     0.10571   0.86788   0.50000   0.01267  Uiso   1.00
O48    O     0.60571   0.36788   0.50000   0.01267  Uiso   1.00
O49    O     0.13057   0.34302   0.64648   0.01267  Uiso   1.00
O50    O     0.63057   0.84302   0.64648   0.01267  Uiso   1.00
O51    O     0.15543   0.81816   0.79297   0.01267  Uiso   1.00
O52    O     0.65543   0.31816   0.79297   0.01267  Uiso   1.00
O53    O     0.06459   0.58187   0.25767   0.01267  Uiso   1.00
O54    O     0.56459   0.08187   0.25767   0.01267  Uiso   1.00
O55    O     0.08945   0.05701   0.40415   0.01267  Uiso   1.00
O56    O     0.58945   0.55701   0.40415   0.01267  Uiso   1.00
O57    O     0.11432   0.53214   0.55064   0.01267  Uiso   1.00
O58    O     0.61432   0.03214   0.55064   0.01267  Uiso   1.00
O59    O     0.13918   0.00728   0.69712   0.01267  Uiso   1.00
O60    O     0.63918   0.50728   0.69712   0.01267  Uiso   1.00
O61    O     0.41796   0.57419   0.30288   0.01267  Uiso   1.00
O62    O     0.91796   0.07419   0.30288   0.01267  Uiso   1.00
O63    O     0.44283   0.04933   0.44936   0.01267  Uiso   1.00
O64    O     0.94283   0.54933   0.44936   0.01267  Uiso   1.00
O65    O     0.46769   0.52447   0.59584   0.01267  Uiso   1.00
O66    O     0.96769   0.02447   0.59584   0.01267  Uiso   1.00
O67    O     0.49255   0.99961   0.74232   0.01267  Uiso   1.00
O68    O     0.99255   0.49961   0.74232   0.01267  Uiso   1.00
