data_image0
_cell_length_a       7.0938
_cell_length_b       7.0938
_cell_length_c       27.8371
_cell_angle_alpha    90
_cell_angle_beta     90
_cell_angle_gamma    92.9993

_symmetry_space_group_name_H-M    "P 1"
_symmetry_int_tables_number       1

loop_
  _symmetry_equiv_pos_as_xyz
  'x, y, z'

loop_
  _atom_site_label
  _atom_site_occupancy
  _atom_site_fract_x
  _atom_site_fract_y
  _atom_site_fract_z
  _atom_site_thermal_displace_type
  _atom_site_B_iso_or_equiv
  _atom_site_type_symbol
  Ir1      1.0000 0.49270  0.37698  0.28904  Biso   1.000  Ir
  Ir2      1.0000 0.99271  0.87698  0.28904  Biso   1.000  Ir
  Ir3      1.0000 0.01758  0.35212  0.41612  Biso   1.000  Ir
  Ir4      1.0000 0.51758  0.85212  0.41612  Biso   1.000  Ir
  Ir5      1.0000 0.03983  0.82746  0.54349  Biso   1.000  Ir
  Ir6      1.0000 0.53904  0.32816  0.54324  Biso   1.000  Ir
  Ir7      1.0000 0.06885  0.29710  0.67421  Biso   1.000  Ir
  Ir8      1.0000 0.56720  0.80040  0.67379  Biso   1.000  Ir
  Ir9      1.0000 0.49271  0.87698  0.28904  Biso   1.000  Ir
  Ir10     1.0000 0.99270  0.37698  0.28904  Biso   1.000  Ir
  Ir11     1.0000 0.01758  0.85212  0.41612  Biso   1.000  Ir
  Ir12     1.0000 0.51758  0.35212  0.41612  Biso   1.000  Ir
  Ir13     1.0000 0.04029  0.32763  0.54358  Biso   1.000  Ir
  Ir14     1.0000 0.54088  0.82902  0.54358  Biso   1.000  Ir
  Ir15     1.0000 0.07367  0.80227  0.67354  Biso   1.000  Ir
  Ir16     1.0000 0.56985  0.30258  0.66966  Biso   1.000  Ir
  O1       1.0000 0.42799  0.28739  0.35258  Biso   1.000  O
  O2       1.0000 0.92798  0.78739  0.35258  Biso   1.000  O
  O3       1.0000 0.45284  0.76253  0.47966  Biso   1.000  O
  O4       1.0000 0.95285  0.26253  0.47966  Biso   1.000  O
  O5       1.0000 0.47588  0.23965  0.60704  Biso   1.000  O
  O6       1.0000 0.98895  0.75057  0.60835  Biso   1.000  O
  O7       1.0000 0.01128  0.20068  0.73111  Biso   1.000  O
  O8       1.0000 0.49761  0.71257  0.73100  Biso   1.000  O
  O9       1.0000 0.23888  0.30367  0.26943  Biso   1.000  O
  O10      1.0000 0.73887  0.80367  0.26943  Biso   1.000  O
  O11      1.0000 0.26374  0.77881  0.39651  Biso   1.000  O
  O12      1.0000 0.76374  0.27881  0.39651  Biso   1.000  O
  O13      1.0000 0.28635  0.25170  0.52367  Biso   1.000  O
  O14      1.0000 0.78699  0.75148  0.52415  Biso   1.000  O
  O15      1.0000 0.31400  0.72324  0.64972  Biso   1.000  O
  O16      1.0000 0.81141  0.22418  0.65005  Biso   1.000  O
  O17      1.0000 0.24654  0.95030  0.30865  Biso   1.000  O
  O18      1.0000 0.74654  0.45030  0.30865  Biso   1.000  O
  O19      1.0000 0.27140  0.42544  0.43573  Biso   1.000  O
  O20      1.0000 0.77140  0.92544  0.43573  Biso   1.000  O
  O21      1.0000 0.29463  0.90512  0.56195  Biso   1.000  O
  O22      1.0000 0.79254  0.40410  0.56240  Biso   1.000  O
  O23      1.0000 0.32412  0.38321  0.68987  Biso   1.000  O
  O24      1.0000 0.82201  0.88103  0.69008  Biso   1.000  O
  O25      1.0000 0.08228  0.44169  0.35258  Biso   1.000  O
  O26      1.0000 0.58228  0.94169  0.35258  Biso   1.000  O
  O27      1.0000 0.10714  0.91683  0.47966  Biso   1.000  O
  O28      1.0000 0.60715  0.41683  0.47966  Biso   1.000  O
  O29      1.0000 0.11679  0.37631  0.60849  Biso   1.000  O
  O30      1.0000 0.62013  0.87877  0.60856  Biso   1.000  O
  O31      1.0000 0.16761  0.85754  0.73107  Biso   1.000  O
  O32      1.0000 0.66307  0.36134  0.73424  Biso   1.000  O
  O33      1.0000 0.06602  0.63082  0.26942  Biso   1.000  O
  O34      1.0000 0.56602  0.13082  0.26942  Biso   1.000  O
  O35      1.0000 0.09088  0.10596  0.39651  Biso   1.000  O
  O36      1.0000 0.59088  0.60596  0.39651  Biso   1.000  O
  O37      1.0000 0.11620  0.58136  0.52444  Biso   1.000  O
  O38      1.0000 0.61641  0.08149  0.52381  Biso   1.000  O
  O39      1.0000 0.14515  0.05480  0.65045  Biso   1.000  O
  O40      1.0000 0.64584  0.55413  0.65184  Biso   1.000  O
  O41      1.0000 0.41939  0.62314  0.30865  Biso   1.000  O
  O42      1.0000 0.91940  0.12314  0.30865  Biso   1.000  O
  O43      1.0000 0.44427  0.09828  0.43573  Biso   1.000  O
  O44      1.0000 0.94426  0.59828  0.43573  Biso   1.000  O
  O45      1.0000 0.46296  0.57343  0.56236  Biso   1.000  O
  O46      1.0000 0.96116  0.07272  0.56192  Biso   1.000  O
  O47      1.0000 0.49044  0.05175  0.69073  Biso   1.000  O
  O48      1.0000 0.98865  0.54721  0.68909  Biso   1.000  O
  H1       1.0000 0.60118  0.27536  0.75764  Biso   1.000  H
