data_image0
_cell_length_a       7.09375
_cell_length_b       8.45769
_cell_length_c       40.8358
_cell_angle_alpha    90
_cell_angle_beta     90
_cell_angle_gamma    66.5828

_symmetry_space_group_name_H-M    "P 1"
_symmetry_int_tables_number       1

loop_
  _symmetry_equiv_pos_as_xyz
  'x, y, z'

loop_
  _atom_site_label
  _atom_site_occupancy
  _atom_site_fract_x
  _atom_site_fract_y
  _atom_site_fract_z
  _atom_site_thermal_displace_type
  _atom_site_B_iso_or_equiv
  _atom_site_type_symbol
  O1       1.0000 0.82808  0.55731  0.19591  Biso   1.000  O
  O2       1.0000 0.81763  0.88793  0.19737  Biso   1.000  O
  O3       1.0000 0.81763  0.23364  0.19737  Biso   1.000  O
  O4       1.0000 0.23080  0.76258  0.20958  Biso   1.000  O
  O5       1.0000 0.23080  0.41689  0.20958  Biso   1.000  O
  O6       1.0000 0.22037  0.09321  0.21104  Biso   1.000  O
  O7       1.0000 0.54672  0.15109  0.23544  Biso   1.000  O
  O8       1.0000 0.53627  0.48172  0.23691  Biso   1.000  O
  O9       1.0000 0.53627  0.82743  0.23691  Biso   1.000  O
  O10      1.0000 0.94945  0.35636  0.24911  Biso   1.000  O
  O11      1.0000 0.94945  0.01067  0.24911  Biso   1.000  O
  O12      1.0000 0.93902  0.68699  0.25058  Biso   1.000  O
  O13      1.0000 0.26536  0.74488  0.27498  Biso   1.000  O
  O14      1.0000 0.25491  0.42122  0.27645  Biso   1.000  O
  O15      1.0000 0.25491  0.07551  0.27645  Biso   1.000  O
  Ir1      1.0000 0.46150  0.51283  0.28255  Biso   1.000  Ir
  Ir2      1.0000 0.96150  0.51283  0.28255  Biso   1.000  Ir
  O16      1.0000 0.66809  0.60446  0.28865  Biso   1.000  O
  O17      1.0000 0.66809  0.95015  0.28865  Biso   1.000  O
  O18      1.0000 0.65766  0.28078  0.29011  Biso   1.000  O
  O19      1.0000 0.98400  0.33867  0.31452  Biso   1.000  O
  O20      1.0000 0.97356  0.01500  0.31599  Biso   1.000  O
  O21      1.0000 0.97356  0.66929  0.31599  Biso   1.000  O
  Ir3      1.0000 0.18015  0.10662  0.32209  Biso   1.000  Ir
  Ir4      1.0000 0.68015  0.10662  0.32209  Biso   1.000  Ir
  O22      1.0000 0.38673  0.19825  0.32819  Biso   1.000  O
  O23      1.0000 0.38673  0.54394  0.32819  Biso   1.000  O
  O24      1.0000 0.37630  0.87457  0.32965  Biso   1.000  O
  O25      1.0000 0.70264  0.93245  0.35405  Biso   1.000  O
  O26      1.0000 0.69220  0.26308  0.35552  Biso   1.000  O
  O27      1.0000 0.69220  0.60879  0.35552  Biso   1.000  O
  Ir5      1.0000 0.89879  0.70040  0.36162  Biso   1.000  Ir
  Ir6      1.0000 0.39879  0.70040  0.36162  Biso   1.000  Ir
  O28      1.0000 0.10537  0.79203  0.36772  Biso   1.000  O
  O29      1.0000 0.10537  0.13772  0.36772  Biso   1.000  O
  O30      1.0000 0.09494  0.46835  0.36919  Biso   1.000  O
  O31      1.0000 0.42129  0.52624  0.39359  Biso   1.000  O
  O32      1.0000 0.41084  0.85687  0.39506  Biso   1.000  O
  O33      1.0000 0.41084  0.20258  0.39506  Biso   1.000  O
  Ir7      1.0000 0.61743  0.29419  0.40116  Biso   1.000  Ir
  Ir8      1.0000 0.11743  0.29419  0.40116  Biso   1.000  Ir
  O34      1.0000 0.82401  0.73151  0.40726  Biso   1.000  O
  O35      1.0000 0.82401  0.38582  0.40726  Biso   1.000  O
  O36      1.0000 0.81358  0.06214  0.40873  Biso   1.000  O
  O37      1.0000 0.13993  0.12002  0.43313  Biso   1.000  O
  O38      1.0000 0.12948  0.45065  0.43460  Biso   1.000  O
  O39      1.0000 0.12948  0.79636  0.43460  Biso   1.000  O
  Ir9      1.0000 0.33607  0.88798  0.44070  Biso   1.000  Ir
  Ir10     1.0000 0.83607  0.88798  0.44070  Biso   1.000  Ir
  O40      1.0000 0.54265  0.97960  0.44680  Biso   1.000  O
  O41      1.0000 0.54265  0.32529  0.44680  Biso   1.000  O
  O42      1.0000 0.53222  0.65593  0.44826  Biso   1.000  O
  O43      1.0000 0.85857  0.71381  0.47266  Biso   1.000  O
  O44      1.0000 0.84812  0.04444  0.47413  Biso   1.000  O
  O45      1.0000 0.84812  0.39015  0.47413  Biso   1.000  O
  Ir11     1.0000 0.05471  0.48176  0.48023  Biso   1.000  Ir
  Ir12     1.0000 0.55471  0.48176  0.48023  Biso   1.000  Ir
  O46      1.0000 0.26130  0.57339  0.48633  Biso   1.000  O
  O47      1.0000 0.26130  0.91908  0.48633  Biso   1.000  O
  O48      1.0000 0.25087  0.24971  0.48780  Biso   1.000  O
  O49      1.0000 0.57721  0.30760  0.51220  Biso   1.000  O
  O50      1.0000 0.56676  0.63822  0.51367  Biso   1.000  O
  O51      1.0000 0.56676  0.98393  0.51367  Biso   1.000  O
  Ir13     1.0000 0.77335  0.07555  0.51977  Biso   1.000  Ir
  Ir14     1.0000 0.27335  0.07555  0.51977  Biso   1.000  Ir
  O52      1.0000 0.97994  0.16718  0.52587  Biso   1.000  O
  O53      1.0000 0.97994  0.51287  0.52587  Biso   1.000  O
  O54      1.0000 0.96951  0.84350  0.52734  Biso   1.000  O
  O55      1.0000 0.29585  0.90138  0.55174  Biso   1.000  O
  O56      1.0000 0.28541  0.23201  0.55321  Biso   1.000  O
  O57      1.0000 0.28541  0.57772  0.55321  Biso   1.000  O
  Ir15     1.0000 0.49200  0.66933  0.55931  Biso   1.000  Ir
  Ir16     1.0000 0.99200  0.66933  0.55931  Biso   1.000  Ir
  O58      1.0000 0.69858  0.10665  0.56541  Biso   1.000  O
  O59      1.0000 0.69858  0.76096  0.56541  Biso   1.000  O
  O60      1.0000 0.68815  0.43728  0.56687  Biso   1.000  O
  O61      1.0000 0.01450  0.49517  0.59127  Biso   1.000  O
  O62      1.0000 0.00405  0.17151  0.59274  Biso   1.000  O
  O63      1.0000 0.00405  0.82580  0.59274  Biso   1.000  O
  Ir17     1.0000 0.21064  0.26312  0.59884  Biso   1.000  Ir
  Ir18     1.0000 0.71064  0.26312  0.59884  Biso   1.000  Ir
  O64      1.0000 0.41722  0.35475  0.60494  Biso   1.000  O
  O65      1.0000 0.41722  0.70044  0.60494  Biso   1.000  O
  O66      1.0000 0.40679  0.03107  0.60641  Biso   1.000  O
  O67      1.0000 0.73314  0.08895  0.63081  Biso   1.000  O
  O68      1.0000 0.72269  0.41958  0.63228  Biso   1.000  O
  O69      1.0000 0.72269  0.76529  0.63228  Biso   1.000  O
  Ir19     1.0000 0.92928  0.85691  0.63838  Biso   1.000  Ir
  Ir20     1.0000 0.42928  0.85691  0.63838  Biso   1.000  Ir
  O70      1.0000 0.13586  0.29422  0.64448  Biso   1.000  O
  O71      1.0000 0.13586  0.94853  0.64448  Biso   1.000  O
  O72      1.0000 0.12543  0.62486  0.64595  Biso   1.000  O
  O73      1.0000 0.45178  0.68274  0.67035  Biso   1.000  O
  O74      1.0000 0.44133  0.01337  0.67182  Biso   1.000  O
  O75      1.0000 0.44133  0.35908  0.67182  Biso   1.000  O
  Ir21     1.0000 0.64792  0.45069  0.67792  Biso   1.000  Ir
  Ir22     1.0000 0.14792  0.45069  0.67792  Biso   1.000  Ir
  O76      1.0000 0.85450  0.54232  0.68402  Biso   1.000  O
  O77      1.0000 0.85450  0.88801  0.68402  Biso   1.000  O
  O78      1.0000 0.84407  0.21864  0.68548  Biso   1.000  O
  O79      1.0000 0.17042  0.27653  0.70989  Biso   1.000  O
  O80      1.0000 0.15997  0.60715  0.71135  Biso   1.000  O
  O81      1.0000 0.15997  0.95286  0.71135  Biso   1.000  O
  Ir23     1.0000 0.36656  0.04448  0.71745  Biso   1.000  Ir
  Ir24     1.0000 0.86656  0.04448  0.71745  Biso   1.000  Ir
  O82      1.0000 0.57315  0.13611  0.72355  Biso   1.000  O
  O83      1.0000 0.57315  0.48180  0.72355  Biso   1.000  O
  O84      1.0000 0.56272  0.81243  0.72502  Biso   1.000  O
  O85      1.0000 0.88906  0.87031  0.74942  Biso   1.000  O
  O86      1.0000 0.87862  0.54665  0.75089  Biso   1.000  O
  O87      1.0000 0.87862  0.20094  0.75089  Biso   1.000  O
  Ir25     1.0000 0.08520  0.63827  0.75699  Biso   1.000  Ir
  Ir26     1.0000 0.58520  0.63827  0.75699  Biso   1.000  Ir
  O88      1.0000 0.29179  0.07558  0.76309  Biso   1.000  O
  O89      1.0000 0.29179  0.72989  0.76309  Biso   1.000  O
  O90      1.0000 0.28136  0.40621  0.76456  Biso   1.000  O
  O91      1.0000 0.60770  0.46410  0.78896  Biso   1.000  O
  O92      1.0000 0.59726  0.14044  0.79043  Biso   1.000  O
  O93      1.0000 0.59726  0.79473  0.79043  Biso   1.000  O
  Ir27     1.0000 0.30385  0.23205  0.79653  Biso   1.000  Ir
  Ir28     1.0000 0.80385  0.23205  0.79653  Biso   1.000  Ir
  O94      1.0000 0.01043  0.32368  0.80263  Biso   1.000  O
  O95      1.0000 0.01043  0.66937  0.80263  Biso   1.000  O
  O96      1.0000 0.00000  0.00000  0.80409  Biso   1.000  O
