data_image0
_cell_length_a       9.3927
_cell_length_b       8.72335
_cell_length_c       27.0937
_cell_angle_alpha    90
_cell_angle_beta     90
_cell_angle_gamma    90

_symmetry_space_group_name_H-M    "P 1"
_symmetry_int_tables_number       1

loop_
  _symmetry_equiv_pos_as_xyz
  'x, y, z'

loop_
  _atom_site_label
  _atom_site_occupancy
  _atom_site_fract_x
  _atom_site_fract_y
  _atom_site_fract_z
  _atom_site_thermal_displace_type
  _atom_site_B_iso_or_equiv
  _atom_site_type_symbol
  O1       1.0000 0.19637  0.32474  0.27682  Biso   1.000  O
  O2       1.0000 0.19637  0.67526  0.27682  Biso   1.000  O
  O3       1.0000 0.44636  0.17526  0.28985  Biso   1.000  O
  O4       1.0000 0.44636  0.82474  0.28985  Biso   1.000  O
  O5       1.0000 0.43034  0.50000  0.29540  Biso   1.000  O
  O6       1.0000 0.24999  0.50000  0.35792  Biso   1.000  O
  O7       1.0000 0.23397  0.17526  0.36348  Biso   1.000  O
  O8       1.0000 0.23397  0.82474  0.36348  Biso   1.000  O
  O9       1.0000 0.48397  0.32474  0.37652  Biso   1.000  O
  O10      1.0000 0.48397  0.67526  0.37652  Biso   1.000  O
  O11      1.0000 0.50000  0.00000  0.38207  Biso   1.000  O
  O12      1.0000 0.18034  0.00000  0.44458  Biso   1.000  O
  O13      1.0000 0.19637  0.32474  0.45015  Biso   1.000  O
  O14      1.0000 0.19637  0.67526  0.45015  Biso   1.000  O
  O15      1.0000 0.44636  0.17526  0.46318  Biso   1.000  O
  O16      1.0000 0.44636  0.82474  0.46318  Biso   1.000  O
  O17      1.0000 0.43034  0.50000  0.46873  Biso   1.000  O
  O18      1.0000 0.24999  0.50000  0.53127  Biso   1.000  O
  O19      1.0000 0.23397  0.17526  0.53682  Biso   1.000  O
  O20      1.0000 0.23397  0.82474  0.53682  Biso   1.000  O
  O21      1.0000 0.48363  0.32399  0.55029  Biso   1.000  O
  O22      1.0000 0.48283  0.67704  0.55075  Biso   1.000  O
  O23      1.0000 0.49867  0.99976  0.55816  Biso   1.000  O
  O24      1.0000 0.18385  0.99785  0.61757  Biso   1.000  O
  O25      1.0000 0.19118  0.33007  0.62300  Biso   1.000  O
  O26      1.0000 0.20609  0.67606  0.62120  Biso   1.000  O
  O27      1.0000 0.44920  0.18413  0.63885  Biso   1.000  O
  O28      1.0000 0.45569  0.82291  0.64045  Biso   1.000  O
  O29      1.0000 0.42597  0.50295  0.64309  Biso   1.000  O
  O30      1.0000 0.24928  0.50274  0.70638  Biso   1.000  O
  O31      1.0000 0.22284  0.20034  0.71232  Biso   1.000  O
  O32      1.0000 0.23045  0.80810  0.70510  Biso   1.000  O
  O33      1.0000 0.48290  0.31927  0.72419  Biso   1.000  O
  O34      1.0000 0.48766  0.67066  0.72642  Biso   1.000  O
  O35      1.0000 0.69637  0.32474  0.27682  Biso   1.000  O
  O36      1.0000 0.69637  0.67526  0.27682  Biso   1.000  O
  O37      1.0000 0.94636  0.17526  0.28985  Biso   1.000  O
  O38      1.0000 0.94636  0.82474  0.28985  Biso   1.000  O
  O39      1.0000 0.93034  0.50000  0.29540  Biso   1.000  O
  O40      1.0000 0.74999  0.50000  0.35792  Biso   1.000  O
  O41      1.0000 0.73397  0.17526  0.36348  Biso   1.000  O
  O42      1.0000 0.73397  0.82474  0.36348  Biso   1.000  O
  O43      1.0000 0.98397  0.32474  0.37652  Biso   1.000  O
  O44      1.0000 0.98397  0.67526  0.37652  Biso   1.000  O
  O45      1.0000 0.00000  0.00000  0.38207  Biso   1.000  O
  O46      1.0000 0.68034  0.00000  0.44458  Biso   1.000  O
  O47      1.0000 0.69637  0.32474  0.45015  Biso   1.000  O
  O48      1.0000 0.69637  0.67526  0.45015  Biso   1.000  O
  O49      1.0000 0.94636  0.17526  0.46318  Biso   1.000  O
  O50      1.0000 0.94636  0.82474  0.46318  Biso   1.000  O
  O51      1.0000 0.93034  0.50000  0.46873  Biso   1.000  O
  O52      1.0000 0.74999  0.50000  0.53127  Biso   1.000  O
  O53      1.0000 0.73397  0.17526  0.53682  Biso   1.000  O
  O54      1.0000 0.73397  0.82474  0.53682  Biso   1.000  O
  O55      1.0000 0.98314  0.32278  0.55026  Biso   1.000  O
  O56      1.0000 0.98355  0.67584  0.55050  Biso   1.000  O
  O57      1.0000 0.99973  0.99433  0.55752  Biso   1.000  O
  O58      1.0000 0.68197  0.00147  0.61816  Biso   1.000  O
  O59      1.0000 0.70211  0.32460  0.62169  Biso   1.000  O
  O60      1.0000 0.70307  0.67562  0.62119  Biso   1.000  O
  O61      1.0000 0.95159  0.17285  0.63837  Biso   1.000  O
  O62      1.0000 0.95461  0.81782  0.63941  Biso   1.000  O
  O63      1.0000 0.91589  0.49769  0.63883  Biso   1.000  O
  O64      1.0000 0.74963  0.49613  0.70644  Biso   1.000  O
  O65      1.0000 0.73540  0.18474  0.70598  Biso   1.000  O
  O66      1.0000 0.73018  0.80803  0.70530  Biso   1.000  O
  O67      1.0000 0.98966  0.34094  0.72052  Biso   1.000  O
  O68      1.0000 0.98581  0.65528  0.72172  Biso   1.000  O
  O69      1.0000 0.43325  0.37239  0.77009  Biso   1.000  O
  Ir1      1.0000 0.34016  0.32466  0.32667  Biso   1.000  Ir
  Ir2      1.0000 0.34016  0.67535  0.32667  Biso   1.000  Ir
  Ir3      1.0000 0.09016  0.17534  0.41333  Biso   1.000  Ir
  Ir4      1.0000 0.09016  0.82466  0.41333  Biso   1.000  Ir
  Ir5      1.0000 0.34016  0.32466  0.50000  Biso   1.000  Ir
  Ir6      1.0000 0.34016  0.67535  0.50000  Biso   1.000  Ir
  Ir7      1.0000 0.09091  0.17198  0.58625  Biso   1.000  Ir
  Ir8      1.0000 0.09412  0.81829  0.58771  Biso   1.000  Ir
  Ir9      1.0000 0.32914  0.31976  0.67437  Biso   1.000  Ir
  Ir10     1.0000 0.35566  0.67485  0.68018  Biso   1.000  Ir
  Ir11     1.0000 0.84017  0.32466  0.32667  Biso   1.000  Ir
  Ir12     1.0000 0.84017  0.67535  0.32667  Biso   1.000  Ir
  Ir13     1.0000 0.59016  0.17534  0.41333  Biso   1.000  Ir
  Ir14     1.0000 0.59016  0.82466  0.41333  Biso   1.000  Ir
  Ir15     1.0000 0.84017  0.32466  0.50000  Biso   1.000  Ir
  Ir16     1.0000 0.84017  0.67535  0.50000  Biso   1.000  Ir
  Ir17     1.0000 0.59220  0.17848  0.58736  Biso   1.000  Ir
  Ir18     1.0000 0.59214  0.82354  0.58755  Biso   1.000  Ir
  Ir19     1.0000 0.85010  0.31868  0.67707  Biso   1.000  Ir
  Ir20     1.0000 0.84744  0.67309  0.67779  Biso   1.000  Ir
  H1       1.0000 0.52467  0.38981  0.78706  Biso   1.000  H
