data_image0
_cell_length_a       3.1894
_cell_length_b       6.42053
_cell_length_c       44.5344
_cell_angle_alpha    90
_cell_angle_beta     90
_cell_angle_gamma    90

_symmetry_space_group_name_H-M    "P 1"
_symmetry_int_tables_number       1

loop_
  _symmetry_equiv_pos_as_xyz
  'x, y, z'

loop_
  _atom_site_label
  _atom_site_occupancy
  _atom_site_fract_x
  _atom_site_fract_y
  _atom_site_fract_z
  _atom_site_thermal_displace_type
  _atom_site_B_iso_or_equiv
  _atom_site_type_symbol
  O1       1.0000 0.00000  0.50000  0.16841  Biso   1.000  O
  O2       1.0000 0.00000  0.00000  0.18282  Biso   1.000  O
  Ir1      1.0000 0.50000  0.00000  0.21166  Biso   1.000  Ir
  O3       1.0000 0.50000  0.30000  0.21166  Biso   1.000  O
  Ir2      1.0000 0.00000  0.50000  0.21166  Biso   1.000  Ir
  O4       1.0000 0.50000  0.70000  0.21166  Biso   1.000  O
  O5       1.0000 0.00000  0.00000  0.24049  Biso   1.000  O
  O6       1.0000 0.00000  0.50000  0.25492  Biso   1.000  O
  Ir3      1.0000 0.00000  0.00000  0.28375  Biso   1.000  Ir
  O7       1.0000 0.50000  0.20000  0.28375  Biso   1.000  O
  Ir4      1.0000 0.50000  0.50000  0.28375  Biso   1.000  Ir
  O8       1.0000 0.50000  0.80000  0.28375  Biso   1.000  O
  O9       1.0000 0.00000  0.50000  0.31259  Biso   1.000  O
  O10      1.0000 0.00000  0.00000  0.32700  Biso   1.000  O
  Ir5      1.0000 0.50000  0.00000  0.35583  Biso   1.000  Ir
  O11      1.0000 0.50000  0.30000  0.35583  Biso   1.000  O
  Ir6      1.0000 0.00000  0.50000  0.35583  Biso   1.000  Ir
  O12      1.0000 0.50000  0.70000  0.35583  Biso   1.000  O
  O13      1.0000 0.00000  0.00000  0.38467  Biso   1.000  O
  O14      1.0000 0.00000  0.50000  0.39908  Biso   1.000  O
  Ir7      1.0000 0.00000  0.00000  0.42792  Biso   1.000  Ir
  O15      1.0000 0.50000  0.20000  0.42792  Biso   1.000  O
  Ir8      1.0000 0.50000  0.50000  0.42792  Biso   1.000  Ir
  O16      1.0000 0.50000  0.80000  0.42792  Biso   1.000  O
  O17      1.0000 0.00000  0.50000  0.45675  Biso   1.000  O
  O18      1.0000 0.00000  0.00000  0.47117  Biso   1.000  O
  Ir9      1.0000 0.50000  0.00000  0.50001  Biso   1.000  Ir
  O19      1.0000 0.50000  0.30000  0.50001  Biso   1.000  O
  Ir10     1.0000 0.00000  0.50000  0.50001  Biso   1.000  Ir
  O20      1.0000 0.50000  0.70000  0.50001  Biso   1.000  O
  O21      1.0000 0.00000  0.00000  0.52883  Biso   1.000  O
  O22      1.0000 0.00000  0.50000  0.54325  Biso   1.000  O
  Ir11     1.0000 0.00000  0.00000  0.57209  Biso   1.000  Ir
  O23      1.0000 0.50000  0.20000  0.57209  Biso   1.000  O
  Ir12     1.0000 0.50000  0.50000  0.57209  Biso   1.000  Ir
  O24      1.0000 0.50000  0.80000  0.57209  Biso   1.000  O
  O25      1.0000 0.00000  0.50000  0.60092  Biso   1.000  O
  O26      1.0000 0.00000  0.00000  0.61534  Biso   1.000  O
  Ir13     1.0000 0.50000  0.00000  0.64417  Biso   1.000  Ir
  O27      1.0000 0.50000  0.30000  0.64417  Biso   1.000  O
  Ir14     1.0000 0.00000  0.50000  0.64417  Biso   1.000  Ir
  O28      1.0000 0.50000  0.70000  0.64417  Biso   1.000  O
  O29      1.0000 0.00000  0.00000  0.67301  Biso   1.000  O
  O30      1.0000 0.00000  0.50000  0.68743  Biso   1.000  O
  Ir15     1.0000 0.00000  0.00000  0.71625  Biso   1.000  Ir
  O31      1.0000 0.50000  0.20000  0.71625  Biso   1.000  O
  Ir16     1.0000 0.50000  0.50000  0.71625  Biso   1.000  Ir
  O32      1.0000 0.50000  0.80000  0.71625  Biso   1.000  O
  O33      1.0000 0.00000  0.50000  0.74510  Biso   1.000  O
  O34      1.0000 0.00000  0.00000  0.75951  Biso   1.000  O
  Ir17     1.0000 0.50000  0.00000  0.78835  Biso   1.000  Ir
  O35      1.0000 0.50000  0.30000  0.78835  Biso   1.000  O
  Ir18     1.0000 0.00000  0.50000  0.78835  Biso   1.000  Ir
  O36      1.0000 0.50000  0.70000  0.78835  Biso   1.000  O
  O37      1.0000 0.00000  0.00000  0.81718  Biso   1.000  O
  O38      1.0000 0.00000  0.50000  0.83159  Biso   1.000  O
