data_image0
_cell_length_a       7.0938
_cell_length_b       7.0938
_cell_length_c       28.1891
_cell_angle_alpha    90
_cell_angle_beta     90
_cell_angle_gamma    92.9993

_symmetry_space_group_name_H-M    "P 1"
_symmetry_int_tables_number       1

loop_
  _symmetry_equiv_pos_as_xyz
  'x, y, z'

loop_
  _atom_site_label
  _atom_site_occupancy
  _atom_site_fract_x
  _atom_site_fract_y
  _atom_site_fract_z
  _atom_site_thermal_displace_type
  _atom_site_B_iso_or_equiv
  _atom_site_type_symbol
  Ir1      1.0000 0.49127  0.32803  0.28543  Biso   1.000  Ir
  Ir2      1.0000 0.99127  0.82803  0.28543  Biso   1.000  Ir
  Ir3      1.0000 0.01614  0.30317  0.41092  Biso   1.000  Ir
  Ir4      1.0000 0.51614  0.80317  0.41092  Biso   1.000  Ir
  Ir5      1.0000 0.03800  0.77790  0.53648  Biso   1.000  Ir
  Ir6      1.0000 0.53983  0.27957  0.53671  Biso   1.000  Ir
  Ir7      1.0000 0.06243  0.24655  0.66291  Biso   1.000  Ir
  Ir8      1.0000 0.56501  0.74754  0.66167  Biso   1.000  Ir
  Ir9      1.0000 0.49127  0.82803  0.28543  Biso   1.000  Ir
  Ir10     1.0000 0.99127  0.32803  0.28543  Biso   1.000  Ir
  Ir11     1.0000 0.01614  0.80317  0.41092  Biso   1.000  Ir
  Ir12     1.0000 0.51614  0.30317  0.41092  Biso   1.000  Ir
  Ir13     1.0000 0.04084  0.27983  0.53651  Biso   1.000  Ir
  Ir14     1.0000 0.53930  0.78025  0.53659  Biso   1.000  Ir
  Ir15     1.0000 0.05948  0.74480  0.66296  Biso   1.000  Ir
  Ir16     1.0000 0.56715  0.24867  0.66594  Biso   1.000  Ir
  O1       1.0000 0.42655  0.23844  0.34818  Biso   1.000  O
  O2       1.0000 0.92655  0.73844  0.34818  Biso   1.000  O
  O3       1.0000 0.45141  0.71358  0.47367  Biso   1.000  O
  O4       1.0000 0.95141  0.21358  0.47367  Biso   1.000  O
  O5       1.0000 0.49092  0.20204  0.60091  Biso   1.000  O
  O6       1.0000 0.97329  0.68851  0.59927  Biso   1.000  O
  O7       1.0000 0.01084  0.16436  0.72676  Biso   1.000  O
  O8       1.0000 0.50272  0.66189  0.72694  Biso   1.000  O
  O9       1.0000 0.23744  0.25472  0.26607  Biso   1.000  O
  O10      1.0000 0.73744  0.75472  0.26607  Biso   1.000  O
  O11      1.0000 0.26230  0.72986  0.39156  Biso   1.000  O
  O12      1.0000 0.76230  0.22986  0.39156  Biso   1.000  O
  O13      1.0000 0.28646  0.20400  0.51724  Biso   1.000  O
  O14      1.0000 0.78543  0.70434  0.51668  Biso   1.000  O
  O15      1.0000 0.30804  0.67520  0.64668  Biso   1.000  O
  O16      1.0000 0.81263  0.16958  0.64335  Biso   1.000  O
  O17      1.0000 0.24511  0.90135  0.30479  Biso   1.000  O
  O18      1.0000 0.74511  0.40135  0.30479  Biso   1.000  O
  O19      1.0000 0.26997  0.37649  0.43029  Biso   1.000  O
  O20      1.0000 0.76997  0.87649  0.43029  Biso   1.000  O
  O21      1.0000 0.29201  0.85555  0.55598  Biso   1.000  O
  O22      1.0000 0.79478  0.35691  0.55471  Biso   1.000  O
  O23      1.0000 0.31524  0.32433  0.67964  Biso   1.000  O
  O24      1.0000 0.81590  0.82403  0.68422  Biso   1.000  O
  O25      1.0000 0.08085  0.39274  0.34818  Biso   1.000  O
  O26      1.0000 0.58085  0.89274  0.34818  Biso   1.000  O
  O27      1.0000 0.10571  0.86788  0.47367  Biso   1.000  O
  O28      1.0000 0.60571  0.36788  0.47367  Biso   1.000  O
  O29      1.0000 0.12126  0.33786  0.59972  Biso   1.000  O
  O30      1.0000 0.62831  0.84034  0.59981  Biso   1.000  O
  O31      1.0000 0.13232  0.81096  0.72877  Biso   1.000  O
  O32      1.0000 0.65922  0.31475  0.72181  Biso   1.000  O
  O33      1.0000 0.06459  0.58187  0.26606  Biso   1.000  O
  O34      1.0000 0.56459  0.08187  0.26606  Biso   1.000  O
  O35      1.0000 0.08945  0.05701  0.39155  Biso   1.000  O
  O36      1.0000 0.58945  0.55701  0.39155  Biso   1.000  O
  O37      1.0000 0.11522  0.53322  0.51670  Biso   1.000  O
  O38      1.0000 0.61485  0.03299  0.51735  Biso   1.000  O
  O39      1.0000 0.13622  0.99761  0.64386  Biso   1.000  O
  O40      1.0000 0.64084  0.50794  0.64231  Biso   1.000  O
  O41      1.0000 0.41796  0.57419  0.30479  Biso   1.000  O
  O42      1.0000 0.91796  0.07419  0.30479  Biso   1.000  O
  O43      1.0000 0.44283  0.04933  0.43029  Biso   1.000  O
  O44      1.0000 0.94283  0.54933  0.43029  Biso   1.000  O
  O45      1.0000 0.46255  0.52665  0.55567  Biso   1.000  O
  O46      1.0000 0.96290  0.02455  0.55522  Biso   1.000  O
  O47      1.0000 0.48378  0.99399  0.68141  Biso   1.000  O
  O48      1.0000 0.98222  0.49268  0.68205  Biso   1.000  O
  H1       1.0000 0.04542  0.02983  0.73193  Biso   1.000  H
  H2       1.0000 0.61290  0.68758  0.74732  Biso   1.000  H
  H3       1.0000 0.26387  0.77767  0.73510  Biso   1.000  H
