data_image0
_cell_length_a       5.9119
_cell_length_b       17.836
_cell_length_c       20
_cell_angle_alpha    90
_cell_angle_beta     90
_cell_angle_gamma    90

_symmetry_space_group_name_H-M    "P 1"
_symmetry_int_tables_number       1

loop_
  _symmetry_equiv_pos_as_xyz
  'x, y, z'

loop_
  _atom_site_label
  _atom_site_occupancy
  _atom_site_fract_x
  _atom_site_fract_y
  _atom_site_fract_z
  _atom_site_thermal_displace_type
  _atom_site_B_iso_or_equiv
  _atom_site_type_symbol
  Ir1      1.0000 0.75900  0.95824  0.29497  Biso   1.000  Ir
  Ir2      1.0000 0.75900  0.12529  0.29497  Biso   1.000  Ir
  Ir3      1.0000 0.25900  0.62529  0.29497  Biso   1.000  Ir
  Ir4      1.0000 0.25900  0.45824  0.29497  Biso   1.000  Ir
  Ir5      1.0000 0.25295  0.11777  0.50314  Biso   1.000  Ir
  Ir6      1.0000 0.29257  0.94880  0.50874  Biso   1.000  Ir
  Ir7      1.0000 0.73917  0.44894  0.51059  Biso   1.000  Ir
  Ir8      1.0000 0.75155  0.61906  0.50304  Biso   1.000  Ir
  Ir9      1.0000 0.52874  0.19415  0.61407  Biso   1.000  Ir
  Ir10     1.0000 0.59922  0.88343  0.62169  Biso   1.000  Ir
  Ir11     1.0000 0.47723  0.36870  0.62710  Biso   1.000  Ir
  Ir12     1.0000 0.45519  0.69168  0.61525  Biso   1.000  Ir
  Ir13     1.0000 0.00900  0.20836  0.40055  Biso   1.000  Ir
  Ir14     1.0000 0.00900  0.87517  0.40055  Biso   1.000  Ir
  Ir15     1.0000 0.00900  0.37517  0.40055  Biso   1.000  Ir
  Ir16     1.0000 0.00900  0.70836  0.40055  Biso   1.000  Ir
  O1       1.0000 0.79300  0.95676  0.39295  Biso   1.000  O
  O2       1.0000 0.79300  0.12676  0.39295  Biso   1.000  O
  O3       1.0000 0.22500  0.62676  0.39295  Biso   1.000  O
  O4       1.0000 0.22500  0.45676  0.39295  Biso   1.000  O
  O5       1.0000 0.99100  0.04176  0.28610  Biso   1.000  O
  O6       1.0000 0.02700  0.54176  0.28610  Biso   1.000  O
  O7       1.0000 0.52700  0.04176  0.30384  Biso   1.000  O
  O8       1.0000 0.49100  0.54176  0.30384  Biso   1.000  O
  O9       1.0000 0.53900  0.87977  0.29159  Biso   1.000  O
  O10      1.0000 0.53900  0.20376  0.29159  Biso   1.000  O
  O11      1.0000 0.47900  0.70376  0.29159  Biso   1.000  O
  O12      1.0000 0.47900  0.37977  0.29159  Biso   1.000  O
  O13      1.0000 0.97900  0.20376  0.29835  Biso   1.000  O
  O14      1.0000 0.97900  0.87977  0.29835  Biso   1.000  O
  O15      1.0000 0.03900  0.37977  0.29835  Biso   1.000  O
  O16      1.0000 0.03900  0.70376  0.29835  Biso   1.000  O
  O17      1.0000 0.77934  0.14459  0.61923  Biso   1.000  O
  O18      1.0000 0.30636  0.93153  0.60344  Biso   1.000  O
  O19      1.0000 0.28202  0.12930  0.60364  Biso   1.000  O
  O20      1.0000 0.75308  0.96685  0.63143  Biso   1.000  O
  O21      1.0000 0.23920  0.42798  0.61287  Biso   1.000  O
  O22      1.0000 0.72325  0.63599  0.60310  Biso   1.000  O
  O23      1.0000 0.72305  0.43988  0.60507  Biso   1.000  O
  O24      1.0000 0.22249  0.63516  0.62998  Biso   1.000  O
  O25      1.0000 0.22500  0.12676  0.40815  Biso   1.000  O
  O26      1.0000 0.22500  0.95676  0.40815  Biso   1.000  O
  O27      1.0000 0.79300  0.45676  0.40815  Biso   1.000  O
  O28      1.0000 0.79300  0.62676  0.40815  Biso   1.000  O
  O29      1.0000 0.69918  0.29139  0.61543  Biso   1.000  O
  O30      1.0000 0.37471  0.78690  0.59259  Biso   1.000  O
  O31      1.0000 0.29614  0.28388  0.61391  Biso   1.000  O
  O32      1.0000 0.81063  0.81810  0.60233  Biso   1.000  O
  O33      1.0000 0.22800  0.29176  0.40055  Biso   1.000  O
  O34      1.0000 0.79000  0.79176  0.40055  Biso   1.000  O
  O35      1.0000 0.79000  0.29176  0.40055  Biso   1.000  O
  O36      1.0000 0.22800  0.79176  0.40055  Biso   1.000  O
  O37      1.0000 0.07291  0.03371  0.52040  Biso   1.000  O
  O38      1.0000 0.94443  0.53875  0.52185  Biso   1.000  O
  O39      1.0000 0.47249  0.03766  0.50138  Biso   1.000  O
  O40      1.0000 0.54632  0.53322  0.50040  Biso   1.000  O
  O41      1.0000 0.48718  0.19320  0.51890  Biso   1.000  O
  O42      1.0000 0.50167  0.86098  0.70183  Biso   1.000  O
  O43      1.0000 0.46281  0.19707  0.70911  Biso   1.000  O
  O44      1.0000 0.56269  0.89435  0.51846  Biso   1.000  O
  O45      1.0000 0.50097  0.38218  0.51810  Biso   1.000  O
  O46      1.0000 0.55763  0.71680  0.69588  Biso   1.000  O
  O47      1.0000 0.52837  0.38363  0.71229  Biso   1.000  O
  O48      1.0000 0.48810  0.67947  0.51710  Biso   1.000  O
  O49      1.0000 0.05190  0.88186  0.49747  Biso   1.000  O
  O50      1.0000 0.00687  0.18996  0.49493  Biso   1.000  O
  O51      1.0000 0.98877  0.69248  0.49589  Biso   1.000  O
  O52      1.0000 0.98822  0.38601  0.49855  Biso   1.000  O
  H1       1.0000 0.52146  0.24332  0.72931  Biso   1.000  H
