data_image0
_cell_length_a       6.64164
_cell_length_b       8.72335
_cell_length_c       51.3313
_cell_angle_alpha    90
_cell_angle_beta     90
_cell_angle_gamma    90

_symmetry_space_group_name_H-M    "P 1"
_symmetry_int_tables_number       1

loop_
  _symmetry_equiv_pos_as_xyz
  'x, y, z'

loop_
  _atom_site_label
  _atom_site_occupancy
  _atom_site_fract_x
  _atom_site_fract_y
  _atom_site_fract_z
  _atom_site_thermal_displace_type
  _atom_site_B_iso_or_equiv
  _atom_site_type_symbol
  O1       1.0000 0.00000  0.00000  0.24388  Biso   1.000  O
  O2       1.0000 0.00000  0.32474  0.24803  Biso   1.000  O
  O3       1.0000 0.00000  0.67526  0.24803  Biso   1.000  O
  O4       1.0000 0.50000  0.32474  0.25776  Biso   1.000  O
  O5       1.0000 0.50000  0.67526  0.25776  Biso   1.000  O
  O6       1.0000 0.50000  0.00000  0.26190  Biso   1.000  O
  O7       1.0000 0.21239  0.17526  0.28524  Biso   1.000  O
  O8       1.0000 0.78761  0.17526  0.28524  Biso   1.000  O
  Ir1      1.0000 0.50000  0.17534  0.28524  Biso   1.000  Ir
  Ir2      1.0000 0.00000  0.32465  0.28524  Biso   1.000  Ir
  O9       1.0000 0.18035  0.50000  0.28524  Biso   1.000  O
  O10      1.0000 0.81965  0.50000  0.28524  Biso   1.000  O
  Ir3      1.0000 0.00000  0.67534  0.28524  Biso   1.000  Ir
  Ir4      1.0000 0.50000  0.82466  0.28524  Biso   1.000  Ir
  O11      1.0000 0.21239  0.82474  0.28524  Biso   1.000  O
  O12      1.0000 0.78761  0.82474  0.28524  Biso   1.000  O
  O13      1.0000 0.50000  0.00000  0.30857  Biso   1.000  O
  O14      1.0000 0.50000  0.32474  0.31272  Biso   1.000  O
  O15      1.0000 0.50000  0.67526  0.31272  Biso   1.000  O
  O16      1.0000 0.00000  0.32474  0.32245  Biso   1.000  O
  O17      1.0000 0.00000  0.67526  0.32245  Biso   1.000  O
  O18      1.0000 0.00000  0.00000  0.32660  Biso   1.000  O
  O19      1.0000 0.28761  0.17526  0.34993  Biso   1.000  O
  Ir5      1.0000 0.50000  0.32465  0.34993  Biso   1.000  Ir
  O20      1.0000 0.31965  0.50000  0.34993  Biso   1.000  O
  Ir6      1.0000 0.50000  0.67534  0.34993  Biso   1.000  Ir
  O21      1.0000 0.71239  0.17526  0.34993  Biso   1.000  O
  Ir7      1.0000 0.00000  0.17534  0.34993  Biso   1.000  Ir
  O22      1.0000 0.68035  0.50000  0.34993  Biso   1.000  O
  O23      1.0000 0.28761  0.82474  0.34993  Biso   1.000  O
  Ir8      1.0000 0.00000  0.82466  0.34993  Biso   1.000  Ir
  O24      1.0000 0.71239  0.82474  0.34993  Biso   1.000  O
  O25      1.0000 0.00000  0.00000  0.37327  Biso   1.000  O
  O26      1.0000 0.00000  0.32474  0.37741  Biso   1.000  O
  O27      1.0000 0.00000  0.67526  0.37741  Biso   1.000  O
  O28      1.0000 0.50000  0.32474  0.38715  Biso   1.000  O
  O29      1.0000 0.50000  0.67526  0.38715  Biso   1.000  O
  O30      1.0000 0.50000  0.00000  0.39129  Biso   1.000  O
  O31      1.0000 0.21239  0.17526  0.41463  Biso   1.000  O
  O32      1.0000 0.78761  0.17526  0.41463  Biso   1.000  O
  Ir9      1.0000 0.50000  0.17534  0.41463  Biso   1.000  Ir
  Ir10     1.0000 0.00000  0.32465  0.41463  Biso   1.000  Ir
  O33      1.0000 0.18035  0.50000  0.41463  Biso   1.000  O
  O34      1.0000 0.81965  0.50000  0.41463  Biso   1.000  O
  Ir11     1.0000 0.00000  0.67534  0.41463  Biso   1.000  Ir
  Ir12     1.0000 0.50000  0.82466  0.41463  Biso   1.000  Ir
  O35      1.0000 0.21239  0.82474  0.41463  Biso   1.000  O
  O36      1.0000 0.78761  0.82474  0.41463  Biso   1.000  O
  O37      1.0000 0.50000  0.00000  0.43796  Biso   1.000  O
  O38      1.0000 0.50000  0.32474  0.44211  Biso   1.000  O
  O39      1.0000 0.50000  0.67526  0.44211  Biso   1.000  O
  O40      1.0000 0.00000  0.32474  0.45184  Biso   1.000  O
  O41      1.0000 0.00000  0.67526  0.45184  Biso   1.000  O
  O42      1.0000 0.00000  0.00000  0.45599  Biso   1.000  O
  O43      1.0000 0.28761  0.17526  0.47932  Biso   1.000  O
  Ir13     1.0000 0.50000  0.32465  0.47932  Biso   1.000  Ir
  O44      1.0000 0.31965  0.50000  0.47932  Biso   1.000  O
  Ir14     1.0000 0.50000  0.67534  0.47932  Biso   1.000  Ir
  O45      1.0000 0.28761  0.82474  0.47932  Biso   1.000  O
  O46      1.0000 0.71239  0.17526  0.47932  Biso   1.000  O
  Ir15     1.0000 0.00000  0.17534  0.47932  Biso   1.000  Ir
  O47      1.0000 0.68035  0.50000  0.47932  Biso   1.000  O
  Ir16     1.0000 0.00000  0.82466  0.47932  Biso   1.000  Ir
  O48      1.0000 0.71239  0.82474  0.47932  Biso   1.000  O
  O49      1.0000 0.00000  0.00000  0.50266  Biso   1.000  O
  O50      1.0000 0.00000  0.32474  0.50680  Biso   1.000  O
  O51      1.0000 0.00000  0.67526  0.50680  Biso   1.000  O
  O52      1.0000 0.50000  0.32474  0.51653  Biso   1.000  O
  O53      1.0000 0.50000  0.67526  0.51653  Biso   1.000  O
  O54      1.0000 0.50000  0.00000  0.52068  Biso   1.000  O
  O55      1.0000 0.21239  0.17526  0.54401  Biso   1.000  O
  O56      1.0000 0.78761  0.17526  0.54401  Biso   1.000  O
  Ir17     1.0000 0.50000  0.17534  0.54401  Biso   1.000  Ir
  Ir18     1.0000 0.00000  0.32465  0.54401  Biso   1.000  Ir
  O57      1.0000 0.18035  0.50000  0.54401  Biso   1.000  O
  O58      1.0000 0.81965  0.50000  0.54401  Biso   1.000  O
  Ir19     1.0000 0.00000  0.67534  0.54401  Biso   1.000  Ir
  Ir20     1.0000 0.50000  0.82466  0.54401  Biso   1.000  Ir
  O59      1.0000 0.21239  0.82474  0.54401  Biso   1.000  O
  O60      1.0000 0.78761  0.82474  0.54401  Biso   1.000  O
  O61      1.0000 0.50000  0.00000  0.56735  Biso   1.000  O
  O62      1.0000 0.50000  0.32474  0.57150  Biso   1.000  O
  O63      1.0000 0.50000  0.67526  0.57150  Biso   1.000  O
  O64      1.0000 0.00000  0.32474  0.58123  Biso   1.000  O
  O65      1.0000 0.00000  0.67526  0.58123  Biso   1.000  O
  O66      1.0000 0.00000  0.00000  0.58537  Biso   1.000  O
  O67      1.0000 0.28761  0.17526  0.60871  Biso   1.000  O
  O68      1.0000 0.71239  0.17526  0.60871  Biso   1.000  O
  Ir21     1.0000 0.00000  0.17534  0.60871  Biso   1.000  Ir
  Ir22     1.0000 0.50000  0.32465  0.60871  Biso   1.000  Ir
  O69      1.0000 0.31965  0.50000  0.60871  Biso   1.000  O
  O70      1.0000 0.68035  0.50000  0.60871  Biso   1.000  O
  Ir23     1.0000 0.50000  0.67534  0.60871  Biso   1.000  Ir
  Ir24     1.0000 0.00000  0.82466  0.60871  Biso   1.000  Ir
  O71      1.0000 0.28761  0.82474  0.60871  Biso   1.000  O
  O72      1.0000 0.71239  0.82474  0.60871  Biso   1.000  O
  O73      1.0000 0.00000  0.00000  0.63204  Biso   1.000  O
  O74      1.0000 0.00000  0.32474  0.63619  Biso   1.000  O
  O75      1.0000 0.00000  0.67526  0.63619  Biso   1.000  O
  O76      1.0000 0.50000  0.32474  0.64592  Biso   1.000  O
  O77      1.0000 0.50000  0.67526  0.64592  Biso   1.000  O
  O78      1.0000 0.50000  0.00000  0.65007  Biso   1.000  O
  O79      1.0000 0.21239  0.17526  0.67340  Biso   1.000  O
  O80      1.0000 0.78761  0.17526  0.67340  Biso   1.000  O
  Ir25     1.0000 0.50000  0.17534  0.67340  Biso   1.000  Ir
  Ir26     1.0000 0.00000  0.32465  0.67340  Biso   1.000  Ir
  O81      1.0000 0.18035  0.50000  0.67340  Biso   1.000  O
  O82      1.0000 0.81965  0.50000  0.67340  Biso   1.000  O
  Ir27     1.0000 0.00000  0.67534  0.67340  Biso   1.000  Ir
  Ir28     1.0000 0.50000  0.82466  0.67340  Biso   1.000  Ir
  O83      1.0000 0.21239  0.82474  0.67340  Biso   1.000  O
  O84      1.0000 0.78761  0.82474  0.67340  Biso   1.000  O
  O85      1.0000 0.50000  0.00000  0.69674  Biso   1.000  O
  O86      1.0000 0.50000  0.32474  0.70088  Biso   1.000  O
  O87      1.0000 0.50000  0.67526  0.70088  Biso   1.000  O
  O88      1.0000 0.00000  0.32474  0.71061  Biso   1.000  O
  O89      1.0000 0.00000  0.67526  0.71061  Biso   1.000  O
  O90      1.0000 0.00000  0.00000  0.71476  Biso   1.000  O
